REMARK SMILES COC(=O)[C@H](Cc1c[nH]c[nH+]1)n1cc([C@H](C2CCCCC2)[N@@H+]2CCc3ccccc3C2)nn1
REMARK SMILES IDX 12 1 33 2 32 3 13 4 14 5 5 6 3 7 4 8 2 9 1 10 6 11 7 12 8 13
REMARK SMILES IDX 11 14 9 15 10 16 15 19 16 20 17 21 21 22 18 23 20 24 19 25
REMARK SMILES IDX 22 26 23 27 31 28 24 30 30 31 25 32 29 33 26 34 28 35 27 36
REMARK H PARENT 11 17 9 18 22 29
REMARK Flexibility Score: inf
ROOT
ATOM      1  N3  MOL     1       2.311  -0.097   1.455  1.00  0.00    -0.237 N 
ATOM      2  N4  MOL     1       1.350   0.703   1.974  1.00  0.00    -0.066 NA
ATOM      3  N5  MOL     1       0.429   0.899   1.044  1.00  0.00    -0.129 NA
ATOM      4  C8  MOL     1       2.003  -0.418   0.162  1.00  0.00     0.142 A 
ATOM      5  C9  MOL     1       0.807   0.224  -0.088  1.00  0.00     0.140 A 
ENDROOT
BRANCH   1   6
ATOM      6  C3  MOL     1       3.482  -0.419   2.270  1.00  0.00     0.226 C 
BRANCH   6   7
ATOM      7  C1  MOL     1       4.429  -1.353   1.556  1.00  0.00     0.331 C 
ATOM      8  O1  MOL     1       4.102  -2.437   1.091  1.00  0.00    -0.250 OA
BRANCH   7   9
ATOM      9  O2  MOL     1       5.688  -0.839   1.552  1.00  0.00    -0.467 OA
ATOM     10  C2  MOL     1       6.670  -1.672   0.921  1.00  0.00     0.282 C 
ENDBRANCH   7   9
ENDBRANCH   6   7
BRANCH   6  11
ATOM     11  C4  MOL     1       3.109  -1.089   3.604  1.00  0.00     0.123 C 
BRANCH  11  12
ATOM     12  C5  MOL     1       2.861  -0.132   4.718  1.00  0.00     0.142 A 
ATOM     13  C6  MOL     1       3.327  -0.109   6.013  1.00  0.00     0.244 A 
ATOM     14  N2  MOL     1       2.004   0.959   4.634  1.00  0.00    -0.248 N 
ATOM     15  N1  MOL     1       2.746   0.974   6.634  1.00  0.00    -0.250 N 
ATOM     16  C7  MOL     1       1.944   1.625   5.792  1.00  0.00     0.399 A 
ATOM     17  H10 MOL     1       1.464   1.218   3.801  1.00  0.00     0.311 HD
ATOM     18  H8  MOL     1       2.896   1.245   7.605  1.00  0.00     0.311 HD
ENDBRANCH  11  12
ENDBRANCH   6  11
ENDBRANCH   1   6
BRANCH   5  19
ATOM     19  C10 MOL     1      -0.022   0.259  -1.349  1.00  0.00     0.241 C 
BRANCH  19  20
ATOM     20  C11 MOL     1      -0.101   1.695  -1.967  1.00  0.00     0.054 C 
ATOM     21  C12 MOL     1       1.315   2.197  -2.341  1.00  0.00     0.010 C 
ATOM     22  C16 MOL     1      -1.018   1.773  -3.207  1.00  0.00     0.010 C 
ATOM     23  C13 MOL     1       1.299   3.580  -2.986  1.00  0.00     0.001 C 
ATOM     24  C15 MOL     1      -1.017   3.158  -3.852  1.00  0.00     0.001 C 
ATOM     25  C14 MOL     1       0.389   3.618  -4.206  1.00  0.00     0.000 C 
ENDBRANCH  19  20
BRANCH  19  26
ATOM     26  N6  MOL     1      -1.408  -0.367  -1.186  1.00  0.00    -0.323 N 
ATOM     27  C17 MOL     1      -2.339   0.322  -0.210  1.00  0.00     0.267 C 
ATOM     28  C19 MOL     1      -1.349  -1.847  -0.868  1.00  0.00     0.299 C 
ATOM     29  H24 MOL     1      -1.861  -0.334  -2.106  1.00  0.00     0.348 HD
ATOM     30  C18 MOL     1      -3.767  -0.173  -0.443  1.00  0.00     0.097 C 
ATOM     31  C20 MOL     1      -2.712  -2.469  -0.721  1.00  0.00     0.010 A 
ATOM     32  C21 MOL     1      -3.856  -1.679  -0.488  1.00  0.00    -0.034 A 
ATOM     33  C25 MOL     1      -2.840  -3.867  -0.762  1.00  0.00     0.010 A 
ATOM     34  C22 MOL     1      -5.107  -2.294  -0.342  1.00  0.00     0.004 A 
ATOM     35  C24 MOL     1      -4.089  -4.467  -0.601  1.00  0.00     0.001 A 
ATOM     36  C23 MOL     1      -5.221  -3.682  -0.396  1.00  0.00     0.000 A 
ENDBRANCH  19  26
ENDBRANCH   5  19
TORSDOF 8
