REMARK SMILES CCOC(=O)[C@H](Cc1ccccc1)n1cc([C@H](C2CCCCC2)[N@H+]2CCc3ccccc3C2)nn1
REMARK SMILES IDX 6 1 4 2 5 3 3 4 2 5 1 6 7 7 8 8 9 9 13 10 10 11 12 12 11 13
REMARK SMILES IDX 14 14 35 15 15 16 34 17 16 18 17 19 18 20 19 21 23 22 20 23
REMARK SMILES IDX 22 24 21 25 24 26 25 27 33 28 26 30 32 31 27 32 31 33 28 34
REMARK SMILES IDX 30 35 29 36
REMARK H PARENT 24 29
REMARK Flexibility Score: inf
ROOT
ATOM      1  C4  MOL     1      -3.622  -0.897   0.771  1.00  0.00     0.223 C 
ENDROOT
BRANCH   1   2
ATOM      2  C1  MOL     1      -4.657  -1.756   0.079  1.00  0.00     0.331 C 
ATOM      3  O1  MOL     1      -5.860  -1.532   0.069  1.00  0.00    -0.250 OA
BRANCH   2   4
ATOM      4  O2  MOL     1      -4.068  -2.857  -0.477  1.00  0.00    -0.464 OA
BRANCH   4   5
ATOM      5  C2  MOL     1      -4.980  -3.744  -1.140  1.00  0.00     0.229 C 
ATOM      6  C3  MOL     1      -4.192  -4.934  -1.652  1.00  0.00     0.049 C 
ENDBRANCH   4   5
ENDBRANCH   2   4
ENDBRANCH   1   2
BRANCH   1   7
ATOM      7  C5  MOL     1      -4.276   0.301   1.479  1.00  0.00     0.075 C 
BRANCH   7   8
ATOM      8  C6  MOL     1      -3.285   1.172   2.223  1.00  0.00    -0.045 A 
ATOM      9  C7  MOL     1      -2.677   0.724   3.403  1.00  0.00     0.004 A 
ATOM     10  C11 MOL     1      -2.963   2.447   1.732  1.00  0.00     0.004 A 
ATOM     11  C8  MOL     1      -1.766   1.538   4.080  1.00  0.00     0.000 A 
ATOM     12  C10 MOL     1      -2.056   3.259   2.414  1.00  0.00     0.000 A 
ATOM     13  C9  MOL     1      -1.459   2.805   3.588  1.00  0.00     0.000 A 
ENDBRANCH   7   8
ENDBRANCH   1   7
BRANCH   1  14
ATOM     14  N1  MOL     1      -2.595  -0.479  -0.168  1.00  0.00    -0.237 N 
ATOM     15  N2  MOL     1      -2.898   0.263  -1.249  1.00  0.00    -0.066 NA
ATOM     16  C29 MOL     1      -1.238  -0.609  -0.033  1.00  0.00     0.142 A 
ATOM     17  N3  MOL     1      -1.764   0.625  -1.824  1.00  0.00    -0.129 NA
ATOM     18  C12 MOL     1      -0.725   0.119  -1.087  1.00  0.00     0.140 A 
BRANCH  18  19
ATOM     19  C13 MOL     1       0.682   0.489  -1.455  1.00  0.00     0.241 C 
BRANCH  19  20
ATOM     20  C14 MOL     1       1.715  -0.665  -1.257  1.00  0.00     0.054 C 
ATOM     21  C15 MOL     1       3.164  -0.240  -1.583  1.00  0.00     0.010 C 
ATOM     22  C19 MOL     1       1.333  -1.881  -2.138  1.00  0.00     0.010 C 
ATOM     23  C16 MOL     1       4.155  -1.398  -1.472  1.00  0.00     0.001 C 
ATOM     24  C18 MOL     1       2.329  -3.031  -2.013  1.00  0.00     0.001 C 
ATOM     25  C17 MOL     1       3.747  -2.582  -2.336  1.00  0.00     0.000 C 
ENDBRANCH  19  20
BRANCH  19  26
ATOM     26  N4  MOL     1       1.131   1.788  -0.772  1.00  0.00    -0.323 N 
ATOM     27  C20 MOL     1       0.261   2.974  -1.163  1.00  0.00     0.267 C 
ATOM     28  C28 MOL     1       1.234   1.727   0.734  1.00  0.00     0.299 C 
ATOM     29  H26 MOL     1       2.069   2.009  -1.121  1.00  0.00     0.348 HD
ATOM     30  C21 MOL     1       0.970   4.271  -0.773  1.00  0.00     0.097 C 
ATOM     31  C27 MOL     1       1.665   3.038   1.338  1.00  0.00     0.010 A 
ATOM     32  C22 MOL     1       1.501   4.250   0.639  1.00  0.00    -0.034 A 
ATOM     33  C26 MOL     1       2.177   3.062   2.645  1.00  0.00     0.010 A 
ATOM     34  C23 MOL     1       1.880   5.455   1.244  1.00  0.00     0.004 A 
ATOM     35  C25 MOL     1       2.535   4.270   3.241  1.00  0.00     0.001 A 
ATOM     36  C24 MOL     1       2.388   5.465   2.542  1.00  0.00     0.000 A 
ENDBRANCH  19  26
ENDBRANCH  18  19
ENDBRANCH   1  14
TORSDOF 9
