REMARK SMILES COC(=O)[C@H](Cc1ccc(O)cc1)n1cc([C@@H]([NH2+]Cc2ccc3c(c2)OCO3)C2CCCCC2)nn1
REMARK SMILES IDX 14 1 36 2 35 3 15 4 16 5 5 6 3 7 4 8 2 9 1 10 6 11 7 12 8 13
REMARK SMILES IDX 13 14 9 15 12 16 10 17 11 18 17 20 29 21 30 22 34 23 31 24
REMARK SMILES IDX 33 25 32 26 18 27 19 30 20 31 21 32 25 33 22 34 24 35 23 36
REMARK SMILES IDX 26 37 28 38 27 39
REMARK H PARENT 11 19 18 28 18 29
REMARK Flexibility Score: inf
ROOT
ATOM      1  N1  MOL     1       0.222   1.633  -2.579  1.00  0.00    -0.237 N 
ATOM      2  N2  MOL     1       1.397   1.172  -2.102  1.00  0.00    -0.066 NA
ATOM      3  N3  MOL     1       1.228   0.864  -0.827  1.00  0.00    -0.129 NA
ATOM      4  C11 MOL     1      -0.722   1.670  -1.586  1.00  0.00     0.142 A 
ATOM      5  C12 MOL     1      -0.076   1.133  -0.494  1.00  0.00     0.140 A 
ENDROOT
BRANCH   1   6
ATOM      6  C3  MOL     1       0.053   1.819  -4.013  1.00  0.00     0.223 C 
BRANCH   6   7
ATOM      7  C1  MOL     1      -0.135   3.287  -4.312  1.00  0.00     0.331 C 
ATOM      8  O1  MOL     1      -1.102   3.945  -3.939  1.00  0.00    -0.250 OA
BRANCH   7   9
ATOM      9  O2  MOL     1       0.894   3.760  -5.065  1.00  0.00    -0.467 OA
ATOM     10  C2  MOL     1       0.803   5.148  -5.397  1.00  0.00     0.282 C 
ENDBRANCH   7   9
ENDBRANCH   6   7
BRANCH   6  11
ATOM     11  C4  MOL     1      -1.126   1.021  -4.604  1.00  0.00     0.075 C 
BRANCH  11  12
ATOM     12  C5  MOL     1      -1.201  -0.422  -4.146  1.00  0.00    -0.045 A 
ATOM     13  C6  MOL     1      -2.360  -0.895  -3.506  1.00  0.00     0.007 A 
ATOM     14  C10 MOL     1      -0.119  -1.298  -4.324  1.00  0.00     0.007 A 
ATOM     15  C7  MOL     1      -2.414  -2.200  -3.013  1.00  0.00     0.046 A 
ATOM     16  C9  MOL     1      -0.174  -2.605  -3.830  1.00  0.00     0.046 A 
ATOM     17  C8  MOL     1      -1.316  -3.038  -3.164  1.00  0.00     0.115 A 
BRANCH  17  18
ATOM     18  O3  MOL     1      -1.397  -4.290  -2.627  1.00  0.00    -0.508 OA
ATOM     19  H9  MOL     1      -0.641  -4.818  -2.937  1.00  0.00     0.293 HD
ENDBRANCH  17  18
ENDBRANCH  11  12
ENDBRANCH   6  11
ENDBRANCH   1   6
BRANCH   5  20
ATOM     20  C13 MOL     1      -0.593   0.721   0.849  1.00  0.00     0.239 C 
BRANCH  20  21
ATOM     21  C14 MOL     1      -0.157   1.708   1.972  1.00  0.00     0.054 C 
ATOM     22  C15 MOL     1      -0.501   1.207   3.391  1.00  0.00     0.010 C 
ATOM     23  C19 MOL     1      -0.803   3.092   1.742  1.00  0.00     0.010 C 
ATOM     24  C16 MOL     1      -0.151   2.224   4.474  1.00  0.00     0.001 C 
ATOM     25  C18 MOL     1      -0.428   4.099   2.828  1.00  0.00     0.001 C 
ATOM     26  C17 MOL     1      -0.791   3.582   4.213  1.00  0.00     0.000 C 
ENDBRANCH  20  21
BRANCH  20  27
ATOM     27  N4  MOL     1      -0.099  -0.672   1.161  1.00  0.00    -0.335 N 
ATOM     28  H25 MOL     1      -0.401  -0.973   2.091  1.00  0.00     0.347 HD
ATOM     29  H26 MOL     1       0.930  -0.639   1.172  1.00  0.00     0.347 HD
BRANCH  27  30
ATOM     30  C20 MOL     1      -0.506  -1.737   0.192  1.00  0.00     0.298 C 
BRANCH  30  31
ATOM     31  C21 MOL     1      -0.179  -3.100   0.738  1.00  0.00     0.010 A 
ATOM     32  C22 MOL     1      -1.209  -3.935   1.235  1.00  0.00     0.013 A 
ATOM     33  C27 MOL     1       1.155  -3.544   0.787  1.00  0.00     0.060 A 
ATOM     34  C23 MOL     1      -0.920  -5.192   1.778  1.00  0.00     0.051 A 
ATOM     35  C26 MOL     1       1.407  -4.789   1.330  1.00  0.00     0.166 A 
ATOM     36  C24 MOL     1       0.399  -5.589   1.813  1.00  0.00     0.165 A 
ATOM     37  O5  MOL     1       2.632  -5.367   1.446  1.00  0.00    -0.454 OA
ATOM     38  O4  MOL     1       0.863  -6.768   2.304  1.00  0.00    -0.454 OA
ATOM     39  C25 MOL     1       2.278  -6.638   2.042  1.00  0.00     0.468 C 
ENDBRANCH  30  31
ENDBRANCH  27  30
ENDBRANCH  20  27
ENDBRANCH   5  20
TORSDOF 11
