REMARK SMILES COC(=O)[C@H](CS)n1cc([C@@H]([NH2+]Cc2ccc3c(c2)OCO3)C2CCCCC2)nn1
REMARK SMILES IDX 8 1 30 2 29 3 9 4 10 5 5 6 3 7 4 8 2 9 1 10 6 11 7 12 11 14
REMARK SMILES IDX 23 15 24 16 28 17 25 18 27 19 26 20 12 21 13 24 14 25 19 26
REMARK SMILES IDX 15 27 18 28 16 29 17 30 20 31 22 32 21 33
REMARK H PARENT 7 13 12 22 12 23
REMARK Flexibility Score: inf
ROOT
ATOM      1  N1  MOL     1      -2.372  -0.135  -0.373  1.00  0.00    -0.237 N 
ATOM      2  N2  MOL     1      -2.296   1.173  -0.059  1.00  0.00    -0.066 NA
ATOM      3  N3  MOL     1      -1.062   1.427   0.339  1.00  0.00    -0.129 NA
ATOM      4  C5  MOL     1      -1.157  -0.744  -0.200  1.00  0.00     0.142 A 
ATOM      5  C6  MOL     1      -0.337   0.265   0.251  1.00  0.00     0.140 A 
ENDROOT
BRANCH   1   6
ATOM      6  C3  MOL     1      -3.594  -0.673  -0.940  1.00  0.00     0.228 C 
BRANCH   6   7
ATOM      7  C1  MOL     1      -4.097  -1.794  -0.064  1.00  0.00     0.331 C 
ATOM      8  O1  MOL     1      -3.700  -2.951  -0.143  1.00  0.00    -0.250 OA
BRANCH   7   9
ATOM      9  O2  MOL     1      -5.032  -1.344   0.816  1.00  0.00    -0.467 OA
ATOM     10  C2  MOL     1      -5.577  -2.354   1.672  1.00  0.00     0.282 C 
ENDBRANCH   7   9
ENDBRANCH   6   7
BRANCH   6  11
ATOM     11  C4  MOL     1      -3.421  -1.202  -2.370  1.00  0.00     0.105 C 
BRANCH  11  12
ATOM     12  S1  MOL     1      -2.871   0.071  -3.565  1.00  0.00    -0.176 SA
ATOM     13  H7  MOL     1      -4.011   0.779  -3.596  1.00  0.00     0.102 HD
ENDBRANCH  11  12
ENDBRANCH   6  11
ENDBRANCH   1   6
BRANCH   5  14
ATOM     14  C7  MOL     1       1.126   0.287   0.557  1.00  0.00     0.239 C 
BRANCH  14  15
ATOM     15  C8  MOL     1       1.472   0.040   2.050  1.00  0.00     0.054 C 
ATOM     16  C9  MOL     1       1.118  -1.396   2.482  1.00  0.00     0.010 C 
ATOM     17  C13 MOL     1       0.849   1.060   3.023  1.00  0.00     0.010 C 
ATOM     18  C10 MOL     1       1.527  -1.669   3.929  1.00  0.00     0.001 C 
ATOM     19  C12 MOL     1       1.257   0.780   4.469  1.00  0.00     0.001 C 
ATOM     20  C11 MOL     1       0.920  -0.649   4.884  1.00  0.00     0.000 C 
ENDBRANCH  14  15
BRANCH  14  21
ATOM     21  N4  MOL     1       1.715   1.621   0.144  1.00  0.00    -0.335 N 
ATOM     22  H21 MOL     1       2.632   1.758   0.579  1.00  0.00     0.347 HD
ATOM     23  H22 MOL     1       1.084   2.343   0.521  1.00  0.00     0.347 HD
BRANCH  21  24
ATOM     24  C14 MOL     1       1.821   1.866  -1.327  1.00  0.00     0.298 C 
BRANCH  24  25
ATOM     25  C15 MOL     1       2.825   0.970  -1.996  1.00  0.00     0.010 A 
ATOM     26  C16 MOL     1       2.392  -0.050  -2.864  1.00  0.00     0.060 A 
ATOM     27  C21 MOL     1       4.211   1.128  -1.745  1.00  0.00     0.013 A 
ATOM     28  C17 MOL     1       3.345  -0.870  -3.431  1.00  0.00     0.166 A 
ATOM     29  C20 MOL     1       5.151   0.277  -2.340  1.00  0.00     0.051 A 
ATOM     30  C18 MOL     1       4.685  -0.713  -3.174  1.00  0.00     0.165 A 
ATOM     31  O4  MOL     1       3.096  -1.898  -4.284  1.00  0.00    -0.454 OA
ATOM     32  O3  MOL     1       5.449  -1.625  -3.831  1.00  0.00    -0.454 OA
ATOM     33  C19 MOL     1       4.439  -2.367  -4.547  1.00  0.00     0.468 C 
ENDBRANCH  24  25
ENDBRANCH  21  24
ENDBRANCH  14  21
ENDBRANCH   5  14
TORSDOF 10
