REMARK SMILES CCOC(=O)[C@H](CCSC)n1cc([C@H](C2CCCCC2)[N@H+]2CCc3ccccc3C2)nn1
REMARK SMILES IDX 6 1 4 2 5 3 3 4 2 5 1 6 7 7 8 8 9 9 10 10 11 11 32 12 12 13
REMARK SMILES IDX 31 14 13 15 14 16 15 17 16 18 20 19 17 20 19 21 18 22 21 23
REMARK SMILES IDX 22 24 30 25 23 27 29 28 24 29 28 30 25 31 27 32 26 33
REMARK H PARENT 21 26
REMARK Flexibility Score: inf
ROOT
ATOM      1  C4  MOL     1      -1.259   0.952   3.266  1.00  0.00     0.219 C 
ENDROOT
BRANCH   1   2
ATOM      2  C1  MOL     1      -0.558   1.290   4.569  1.00  0.00     0.331 C 
ATOM      3  O1  MOL     1      -0.926   0.932   5.678  1.00  0.00    -0.250 OA
BRANCH   2   4
ATOM      4  O2  MOL     1       0.518   2.100   4.330  1.00  0.00    -0.464 OA
BRANCH   4   5
ATOM      5  C2  MOL     1       1.255   2.467   5.508  1.00  0.00     0.229 C 
ATOM      6  C3  MOL     1       2.384   3.385   5.082  1.00  0.00     0.049 C 
ENDBRANCH   4   5
ENDBRANCH   2   4
ENDBRANCH   1   2
BRANCH   1   7
ATOM      7  C5  MOL     1      -2.538   0.123   3.511  1.00  0.00     0.050 C 
BRANCH   7   8
ATOM      8  C6  MOL     1      -3.229  -0.450   2.270  1.00  0.00     0.072 C 
BRANCH   8   9
ATOM      9  S1  MOL     1      -3.579   0.805   0.994  1.00  0.00    -0.165 SA
ATOM     10  C7  MOL     1      -4.499  -0.238  -0.170  1.00  0.00     0.085 C 
ENDBRANCH   8   9
ENDBRANCH   7   8
ENDBRANCH   1   7
BRANCH   1  11
ATOM     11  N1  MOL     1      -0.324   0.309   2.360  1.00  0.00    -0.238 N 
ATOM     12  N2  MOL     1       0.060  -0.965   2.545  1.00  0.00    -0.066 NA
ATOM     13  C25 MOL     1       0.187   0.805   1.190  1.00  0.00     0.142 A 
ATOM     14  N3  MOL     1       0.801  -1.321   1.509  1.00  0.00    -0.129 NA
ATOM     15  C8  MOL     1       0.903  -0.248   0.663  1.00  0.00     0.140 A 
BRANCH  15  16
ATOM     16  C9  MOL     1       1.643  -0.410  -0.631  1.00  0.00     0.241 C 
BRANCH  16  17
ATOM     17  C10 MOL     1       2.588   0.781  -0.975  1.00  0.00     0.054 C 
ATOM     18  C11 MOL     1       3.337   0.579  -2.311  1.00  0.00     0.010 C 
ATOM     19  C15 MOL     1       3.624   0.994   0.157  1.00  0.00     0.010 C 
ATOM     20  C12 MOL     1       4.335   1.698  -2.610  1.00  0.00     0.001 C 
ATOM     21  C14 MOL     1       4.583   2.139  -0.149  1.00  0.00     0.001 C 
ATOM     22  C13 MOL     1       5.316   1.910  -1.464  1.00  0.00     0.000 C 
ENDBRANCH  16  17
BRANCH  16  23
ATOM     23  N4  MOL     1       0.707  -0.764  -1.795  1.00  0.00    -0.323 N 
ATOM     24  C16 MOL     1      -0.102  -2.024  -1.516  1.00  0.00     0.267 C 
ATOM     25  C24 MOL     1      -0.227   0.333  -2.240  1.00  0.00     0.299 C 
ATOM     26  H26 MOL     1       1.298  -0.993  -2.598  1.00  0.00     0.348 HD
ATOM     27  C17 MOL     1      -0.718  -2.536  -2.819  1.00  0.00     0.097 C 
ATOM     28  C23 MOL     1      -1.113  -0.090  -3.383  1.00  0.00     0.010 A 
ATOM     29  C18 MOL     1      -1.387  -1.451  -3.625  1.00  0.00    -0.034 A 
ATOM     30  C22 MOL     1      -1.728   0.887  -4.180  1.00  0.00     0.010 A 
ATOM     31  C19 MOL     1      -2.262  -1.808  -4.660  1.00  0.00     0.004 A 
ATOM     32  C21 MOL     1      -2.589   0.518  -5.214  1.00  0.00     0.001 A 
ATOM     33  C20 MOL     1      -2.864  -0.826  -5.446  1.00  0.00     0.000 A 
ENDBRANCH  16  23
ENDBRANCH  15  16
ENDBRANCH   1  11
TORSDOF 10
