REMARK SMILES COC(=O)[C@H](CCCNC(N)=[NH2+])n1cc([C@@H]([NH2+]Cc2ccc3c(c2)OCO3)C2CCCCC2)nn1
REMARK SMILES IDX 13 1 35 2 34 3 14 4 15 5 5 6 3 7 4 8 2 9 1 10 6 11 7 12 8 13
REMARK SMILES IDX 9 14 10 15 11 17 12 18 16 23 28 24 29 25 33 26 30 27 32 28
REMARK SMILES IDX 31 29 17 30 18 33 19 34 24 35 20 36 23 37 21 38 22 39 25 40
REMARK SMILES IDX 27 41 26 42
REMARK H PARENT 9 16 11 19 11 20 12 21 12 22 17 31 17 32
REMARK Flexibility Score: inf
ROOT
ATOM      1  N4  MOL     1      -0.076   0.209   1.109  1.00  0.00    -0.238 N 
ATOM      2  N5  MOL     1      -0.966   1.034   1.687  1.00  0.00    -0.066 NA
ATOM      3  N6  MOL     1      -2.052   1.053   0.931  1.00  0.00    -0.129 NA
ATOM      4  C8  MOL     1      -0.572  -0.301  -0.058  1.00  0.00     0.142 A 
ATOM      5  C9  MOL     1      -1.841   0.238  -0.150  1.00  0.00     0.140 A 
ENDROOT
BRANCH   1   6
ATOM      6  C3  MOL     1       1.234  -0.020   1.710  1.00  0.00     0.218 C 
BRANCH   6   7
ATOM      7  C1  MOL     1       1.138  -0.992   2.881  1.00  0.00     0.330 C 
ATOM      8  O1  MOL     1       1.941  -1.007   3.818  1.00  0.00    -0.250 OA
BRANCH   7   9
ATOM      9  O2  MOL     1       0.145  -1.902   2.703  1.00  0.00    -0.467 OA
ATOM     10  C2  MOL     1      -0.021  -2.911   3.710  1.00  0.00     0.282 C 
ENDBRANCH   7   9
ENDBRANCH   6   7
BRANCH   6  11
ATOM     11  C4  MOL     1       1.897   1.304   2.144  1.00  0.00     0.043 C 
BRANCH  11  12
ATOM     12  C5  MOL     1       3.429   1.210   2.282  1.00  0.00     0.040 C 
BRANCH  12  13
ATOM     13  C6  MOL     1       3.938   1.727   3.633  1.00  0.00     0.197 C 
BRANCH  13  14
ATOM     14  N1  MOL     1       3.618   0.795   4.720  1.00  0.00    -0.278 N 
ATOM     15  C7  MOL     1       4.002   0.931   5.996  1.00  0.00     0.338 C 
ATOM     16  H11 MOL     1       3.062  -0.040   4.519  1.00  0.00     0.260 HD
ATOM     17  N2  MOL     1       3.721  -0.042   6.876  1.00  0.00    -0.291 N 
ATOM     18  N3  MOL     1       4.667   2.006   6.426  1.00  0.00    -0.291 N 
ATOM     19  H12 MOL     1       3.210  -0.874   6.605  1.00  0.00     0.256 HD
ATOM     20  H13 MOL     1       3.996   0.034   7.846  1.00  0.00     0.256 HD
ATOM     21  H14 MOL     1       4.906   2.766   5.800  1.00  0.00     0.256 HD
ATOM     22  H15 MOL     1       4.932   2.123   7.396  1.00  0.00     0.256 HD
ENDBRANCH  13  14
ENDBRANCH  12  13
ENDBRANCH  11  12
ENDBRANCH   6  11
ENDBRANCH   1   6
BRANCH   5  23
ATOM     23  C10 MOL     1      -2.917   0.087  -1.185  1.00  0.00     0.239 C 
BRANCH  23  24
ATOM     24  C11 MOL     1      -3.782  -1.188  -0.955  1.00  0.00     0.054 C 
ATOM     25  C12 MOL     1      -3.022  -2.517  -1.139  1.00  0.00     0.010 C 
ATOM     26  C16 MOL     1      -5.059  -1.186  -1.823  1.00  0.00     0.010 C 
ATOM     27  C13 MOL     1      -3.913  -3.723  -0.859  1.00  0.00     0.001 C 
ATOM     28  C15 MOL     1      -5.949  -2.391  -1.521  1.00  0.00     0.001 C 
ATOM     29  C14 MOL     1      -5.189  -3.701  -1.693  1.00  0.00     0.000 C 
ENDBRANCH  23  24
BRANCH  23  30
ATOM     30  N7  MOL     1      -2.400   0.135  -2.606  1.00  0.00    -0.335 N 
ATOM     31  H29 MOL     1      -3.159  -0.112  -3.249  1.00  0.00     0.347 HD
ATOM     32  H30 MOL     1      -1.674  -0.581  -2.725  1.00  0.00     0.347 HD
BRANCH  30  33
ATOM     33  C17 MOL     1      -1.873   1.464  -3.058  1.00  0.00     0.298 C 
BRANCH  33  34
ATOM     34  C18 MOL     1      -0.382   1.598  -2.911  1.00  0.00     0.010 A 
ATOM     35  C19 MOL     1       0.165   2.518  -2.000  1.00  0.00     0.060 A 
ATOM     36  C24 MOL     1       0.486   0.803  -3.700  1.00  0.00     0.013 A 
ATOM     37  C20 MOL     1       1.540   2.617  -1.921  1.00  0.00     0.166 A 
ATOM     38  C23 MOL     1       1.875   0.923  -3.587  1.00  0.00     0.051 A 
ATOM     39  C21 MOL     1       2.370   1.846  -2.693  1.00  0.00     0.165 A 
ATOM     40  O4  MOL     1       2.229   3.458  -1.107  1.00  0.00    -0.454 OA
ATOM     41  O3  MOL     1       3.681   2.112  -2.463  1.00  0.00    -0.454 OA
ATOM     42  C22 MOL     1       3.580   3.233  -1.565  1.00  0.00     0.468 C 
ENDBRANCH  33  34
ENDBRANCH  30  33
ENDBRANCH  23  30
ENDBRANCH   5  23
TORSDOF 12
