REMARK SMILES COC(=O)[C@H](Cc1c[nH]c2ccccc12)n1cc([C@@H]([NH2+]Cc2ccc3c(c2)OCO3)C2CCCCC2)nn1
REMARK SMILES IDX 16 1 38 2 37 3 17 4 18 5 5 6 3 7 4 8 2 9 1 10 6 11 7 12 8 13
REMARK SMILES IDX 15 14 9 15 10 16 14 17 11 19 13 20 12 21 19 22 31 23 32 24
REMARK SMILES IDX 36 25 33 26 35 27 34 28 20 29 21 32 22 33 23 34 27 35 24 36
REMARK SMILES IDX 26 37 25 38 28 39 30 40 29 41
REMARK H PARENT 9 18 20 30 20 31
REMARK Flexibility Score: inf
ROOT
ATOM      1  N2  MOL     1      -1.228   1.147  -2.285  1.00  0.00    -0.237 N 
ATOM      2  N3  MOL     1       0.079   1.060  -2.623  1.00  0.00    -0.066 NA
ATOM      3  N4  MOL     1       0.786   0.970  -1.509  1.00  0.00    -0.129 NA
ATOM      4  C13 MOL     1      -1.373   1.059  -0.925  1.00  0.00     0.142 A 
ATOM      5  C14 MOL     1      -0.086   0.969  -0.450  1.00  0.00     0.140 A 
ENDROOT
BRANCH   1   6
ATOM      6  C3  MOL     1      -2.236   1.186  -3.341  1.00  0.00     0.223 C 
BRANCH   6   7
ATOM      7  C1  MOL     1      -3.414   2.085  -3.017  1.00  0.00     0.331 C 
ATOM      8  O1  MOL     1      -3.631   2.636  -1.944  1.00  0.00    -0.250 OA
BRANCH   7   9
ATOM      9  O2  MOL     1      -4.198   2.242  -4.125  1.00  0.00    -0.467 OA
ATOM     10  C2  MOL     1      -5.303   3.137  -3.952  1.00  0.00     0.282 C 
ENDBRANCH   7   9
ENDBRANCH   6   7
BRANCH   6  11
ATOM     11  C4  MOL     1      -2.667  -0.220  -3.785  1.00  0.00     0.077 C 
BRANCH  11  12
ATOM     12  C5  MOL     1      -3.171  -1.100  -2.678  1.00  0.00    -0.020 A 
ATOM     13  C6  MOL     1      -4.393  -1.001  -2.040  1.00  0.00     0.087 A 
ATOM     14  C8  MOL     1      -2.485  -2.215  -2.090  1.00  0.00     0.003 A 
ATOM     15  N1  MOL     1      -4.468  -1.988  -1.092  1.00  0.00    -0.361 N 
ATOM     16  C7  MOL     1      -3.309  -2.730  -1.088  1.00  0.00     0.046 A 
ATOM     17  C9  MOL     1      -1.240  -2.843  -2.320  1.00  0.00     0.010 A 
ATOM     18  H8  MOL     1      -5.260  -2.166  -0.489  1.00  0.00     0.166 HD
ATOM     19  C12 MOL     1      -2.949  -3.831  -0.299  1.00  0.00     0.026 A 
ATOM     20  C10 MOL     1      -0.872  -3.955  -1.552  1.00  0.00     0.001 A 
ATOM     21  C11 MOL     1      -1.713  -4.435  -0.550  1.00  0.00     0.002 A 
ENDBRANCH  11  12
ENDBRANCH   6  11
ENDBRANCH   1   6
BRANCH   5  22
ATOM     22  C15 MOL     1       0.437   0.770   0.941  1.00  0.00     0.239 C 
BRANCH  22  23
ATOM     23  C16 MOL     1       1.037   2.082   1.533  1.00  0.00     0.054 C 
ATOM     24  C17 MOL     1      -0.013   3.213   1.631  1.00  0.00     0.010 C 
ATOM     25  C21 MOL     1       1.680   1.921   2.929  1.00  0.00     0.010 C 
ATOM     26  C18 MOL     1      -1.067   2.947   2.707  1.00  0.00     0.001 C 
ATOM     27  C20 MOL     1       0.652   1.627   4.020  1.00  0.00     0.001 C 
ATOM     28  C19 MOL     1      -0.428   2.704   4.073  1.00  0.00     0.000 C 
ENDBRANCH  22  23
BRANCH  22  29
ATOM     29  N5  MOL     1       1.505  -0.296   0.890  1.00  0.00    -0.335 N 
ATOM     30  H26 MOL     1       2.154  -0.023   0.139  1.00  0.00     0.347 HD
ATOM     31  H27 MOL     1       2.053  -0.354   1.750  1.00  0.00     0.347 HD
BRANCH  29  32
ATOM     32  C22 MOL     1       1.008  -1.665   0.566  1.00  0.00     0.298 C 
BRANCH  32  33
ATOM     33  C23 MOL     1       2.162  -2.605   0.359  1.00  0.00     0.010 A 
ATOM     34  C24 MOL     1       2.870  -2.590  -0.868  1.00  0.00     0.013 A 
ATOM     35  C29 MOL     1       2.575  -3.467   1.389  1.00  0.00     0.060 A 
ATOM     36  C25 MOL     1       3.974  -3.425  -1.071  1.00  0.00     0.051 A 
ATOM     37  C28 MOL     1       3.667  -4.278   1.154  1.00  0.00     0.166 A 
ATOM     38  C26 MOL     1       4.347  -4.258  -0.039  1.00  0.00     0.165 A 
ATOM     39  O4  MOL     1       4.202  -5.156   2.042  1.00  0.00    -0.454 OA
ATOM     40  O3  MOL     1       5.393  -5.125  -0.055  1.00  0.00    -0.454 OA
ATOM     41  C27 MOL     1       5.278  -5.718   1.258  1.00  0.00     0.468 C 
ENDBRANCH  32  33
ENDBRANCH  29  32
ENDBRANCH  22  29
ENDBRANCH   5  22
TORSDOF 10
