REMARK SMILES COC(=O)[C@H](c1ccccc1)n1cc([C@H](C2CCCCC2)[N@@H+]2CCc3ccccc3C2)nn1
REMARK SMILES IDX 12 1 33 2 32 3 13 4 14 5 5 6 3 7 4 8 2 9 1 10 6 11 7 12
REMARK SMILES IDX 11 13 8 14 10 15 9 16 15 17 16 18 17 19 21 20 18 21 20 22
REMARK SMILES IDX 19 23 22 24 31 25 23 26 30 28 24 29 29 30 25 31 28 32 26 33
REMARK SMILES IDX 27 34
REMARK H PARENT 22 27
REMARK Flexibility Score: inf
ROOT
ATOM      1  N1  MOL     1       1.385   2.692  -0.579  1.00  0.00    -0.233 N 
ATOM      2  N2  MOL     1       0.371   3.287   0.084  1.00  0.00    -0.066 NA
ATOM      3  N3  MOL     1      -0.367   2.341   0.640  1.00  0.00    -0.129 NA
ATOM      4  C10 MOL     1       1.268   1.329  -0.493  1.00  0.00     0.142 A 
ATOM      5  C11 MOL     1       0.137   1.122   0.266  1.00  0.00     0.140 A 
ENDROOT
BRANCH   1   6
ATOM      6  C3  MOL     1       2.401   3.518  -1.239  1.00  0.00     0.249 C 
BRANCH   6   7
ATOM      7  C1  MOL     1       2.725   3.046  -2.645  1.00  0.00     0.335 C 
ATOM      8  O1  MOL     1       2.569   1.907  -3.071  1.00  0.00    -0.249 OA
BRANCH   7   9
ATOM      9  O2  MOL     1       3.232   4.083  -3.376  1.00  0.00    -0.467 OA
ATOM     10  C2  MOL     1       3.632   3.766  -4.714  1.00  0.00     0.282 C 
ENDBRANCH   7   9
ENDBRANCH   6   7
BRANCH   6  11
ATOM     11  C4  MOL     1       3.621   3.672  -0.344  1.00  0.00    -0.012 A 
ATOM     12  C5  MOL     1       4.614   2.678  -0.243  1.00  0.00     0.006 A 
ATOM     13  C9  MOL     1       3.748   4.840   0.434  1.00  0.00     0.006 A 
ATOM     14  C6  MOL     1       5.708   2.861   0.608  1.00  0.00     0.000 A 
ATOM     15  C8  MOL     1       4.842   5.017   1.282  1.00  0.00     0.000 A 
ATOM     16  C7  MOL     1       5.820   4.027   1.369  1.00  0.00     0.000 A 
ENDBRANCH   6  11
ENDBRANCH   1   6
BRANCH   5  17
ATOM     17  C12 MOL     1      -0.577  -0.139   0.682  1.00  0.00     0.241 C 
BRANCH  17  18
ATOM     18  C13 MOL     1       0.328  -1.421   0.630  1.00  0.00     0.054 C 
ATOM     19  C14 MOL     1       1.506  -1.333   1.634  1.00  0.00     0.010 C 
ATOM     20  C18 MOL     1      -0.403  -2.756   0.886  1.00  0.00     0.010 C 
ATOM     21  C15 MOL     1       1.070  -1.488   3.092  1.00  0.00     0.001 C 
ATOM     22  C17 MOL     1      -0.890  -2.895   2.326  1.00  0.00     0.001 C 
ATOM     23  C16 MOL     1       0.270  -2.768   3.311  1.00  0.00     0.000 C 
ENDBRANCH  17  18
BRANCH  17  24
ATOM     24  N4  MOL     1      -1.879  -0.351  -0.106  1.00  0.00    -0.323 N 
ATOM     25  C19 MOL     1      -2.956   0.649   0.267  1.00  0.00     0.299 C 
ATOM     26  C27 MOL     1      -1.735  -0.381  -1.611  1.00  0.00     0.267 C 
ATOM     27  H23 MOL     1      -2.276  -1.244   0.190  1.00  0.00     0.348 HD
ATOM     28  C20 MOL     1      -4.250   0.396  -0.464  1.00  0.00     0.010 A 
ATOM     29  C26 MOL     1      -3.014  -0.952  -2.228  1.00  0.00     0.097 C 
ATOM     30  C21 MOL     1      -5.442   0.953   0.028  1.00  0.00     0.010 A 
ATOM     31  C25 MOL     1      -4.270  -0.322  -1.675  1.00  0.00    -0.034 A 
ATOM     32  C22 MOL     1      -6.644   0.777  -0.661  1.00  0.00     0.001 A 
ATOM     33  C24 MOL     1      -5.485  -0.499  -2.354  1.00  0.00     0.004 A 
ATOM     34  C23 MOL     1      -6.664   0.050  -1.848  1.00  0.00     0.000 A 
ENDBRANCH  17  24
ENDBRANCH   5  17
TORSDOF 7
