REMARK SMILES COC(=O)[C@H]([C@H](C)O)n1cc([C@@H]([NH2+]Cc2ccc3c(c2)OCO3)C2CCCCC2)nn1
REMARK SMILES IDX 9 1 31 2 30 3 10 4 11 5 5 6 3 7 4 8 2 9 1 10 6 11 7 12 8 13
REMARK SMILES IDX 12 15 24 16 25 17 29 18 26 19 28 20 27 21 13 22 14 25 15 26
REMARK SMILES IDX 20 27 16 28 19 29 17 30 18 31 21 32 23 33 22 34
REMARK H PARENT 8 14 13 23 13 24
REMARK Flexibility Score: inf
ROOT
ATOM      1  N1  MOL     1      -2.598   0.913  -0.313  1.00  0.00    -0.235 N 
ATOM      2  N2  MOL     1      -1.639   1.837  -0.100  1.00  0.00    -0.066 NA
ATOM      3  N3  MOL     1      -0.487   1.330  -0.503  1.00  0.00    -0.129 NA
ATOM      4  C6  MOL     1      -2.066  -0.207  -0.897  1.00  0.00     0.142 A 
ATOM      5  C7  MOL     1      -0.722   0.071  -0.997  1.00  0.00     0.140 A 
ENDROOT
BRANCH   1   6
ATOM      6  C3  MOL     1      -3.990   1.156   0.046  1.00  0.00     0.246 C 
BRANCH   6   7
ATOM      7  C1  MOL     1      -4.549   2.310  -0.768  1.00  0.00     0.333 C 
ATOM      8  O1  MOL     1      -4.166   2.603  -1.895  1.00  0.00    -0.250 OA
BRANCH   7   9
ATOM      9  O2  MOL     1      -5.593   2.917  -0.139  1.00  0.00    -0.467 OA
ATOM     10  C2  MOL     1      -6.192   3.986  -0.879  1.00  0.00     0.282 C 
ENDBRANCH   7   9
ENDBRANCH   6   7
BRANCH   6  11
ATOM     11  C4  MOL     1      -4.226   1.247   1.568  1.00  0.00     0.147 C 
ATOM     12  C5  MOL     1      -3.473   2.357   2.295  1.00  0.00     0.041 C 
BRANCH  11  13
ATOM     13  O3  MOL     1      -3.887  -0.013   2.171  1.00  0.00    -0.391 OA
ATOM     14  H9  MOL     1      -4.087   0.054   3.125  1.00  0.00     0.211 HD
ENDBRANCH  11  13
ENDBRANCH   6  11
ENDBRANCH   1   6
BRANCH   5  15
ATOM     15  C8  MOL     1       0.428  -0.720  -1.538  1.00  0.00     0.239 C 
BRANCH  15  16
ATOM     16  C9  MOL     1       0.512  -2.166  -0.987  1.00  0.00     0.054 C 
ATOM     17  C10 MOL     1       1.617  -2.982  -1.688  1.00  0.00     0.010 C 
ATOM     18  C14 MOL     1       0.680  -2.252   0.543  1.00  0.00     0.010 C 
ATOM     19  C11 MOL     1       1.640  -4.431  -1.207  1.00  0.00     0.001 C 
ATOM     20  C13 MOL     1       0.694  -3.705   1.016  1.00  0.00     0.001 C 
ATOM     21  C12 MOL     1       1.773  -4.520   0.310  1.00  0.00     0.000 C 
ENDBRANCH  15  16
BRANCH  15  22
ATOM     22  N4  MOL     1       1.715   0.026  -1.291  1.00  0.00    -0.335 N 
ATOM     23  H23 MOL     1       1.469   0.842  -0.704  1.00  0.00     0.347 HD
ATOM     24  H24 MOL     1       2.377  -0.501  -0.710  1.00  0.00     0.347 HD
BRANCH  22  25
ATOM     25  C15 MOL     1       2.388   0.545  -2.506  1.00  0.00     0.298 C 
BRANCH  25  26
ATOM     26  C16 MOL     1       3.679   1.231  -2.161  1.00  0.00     0.010 A 
ATOM     27  C17 MOL     1       4.873   0.492  -2.087  1.00  0.00     0.060 A 
ATOM     28  C22 MOL     1       3.698   2.618  -1.881  1.00  0.00     0.013 A 
ATOM     29  C18 MOL     1       6.033   1.166  -1.768  1.00  0.00     0.166 A 
ATOM     30  C21 MOL     1       4.893   3.270  -1.558  1.00  0.00     0.051 A 
ATOM     31  C19 MOL     1       6.044   2.516  -1.514  1.00  0.00     0.165 A 
ATOM     32  O5  MOL     1       7.269   0.607  -1.678  1.00  0.00    -0.454 OA
ATOM     33  O4  MOL     1       7.289   2.978  -1.232  1.00  0.00    -0.454 OA
ATOM     34  C20 MOL     1       8.068   1.769  -1.352  1.00  0.00     0.468 C 
ENDBRANCH  25  26
ENDBRANCH  22  25
ENDBRANCH  15  22
ENDBRANCH   5  15
TORSDOF 10
