REMARK SMILES CCOC(=O)[C@H](Cc1ccccc1)n1cc([C@@H]([NH2+]Cc2ccc3c(c2)OCO3)C2CCCCC2)nn1
REMARK SMILES IDX 14 1 36 2 35 3 15 4 16 5 6 6 4 7 5 8 3 9 2 10 1 11 7 12 8 13
REMARK SMILES IDX 9 14 13 15 10 16 12 17 11 18 17 19 29 20 30 21 34 22 31 23
REMARK SMILES IDX 33 24 32 25 18 26 19 29 20 30 21 31 25 32 22 33 24 34 23 35
REMARK SMILES IDX 26 36 28 37 27 38
REMARK H PARENT 18 27 18 28
REMARK Flexibility Score: inf
ROOT
ATOM      1  N1  MOL     1      -2.179  -0.419   0.112  1.00  0.00    -0.237 N 
ATOM      2  N2  MOL     1      -1.496  -0.531   1.270  1.00  0.00    -0.066 NA
ATOM      3  N3  MOL     1      -0.212  -0.366   1.005  1.00  0.00    -0.129 NA
ATOM      4  C12 MOL     1      -1.326  -0.160  -0.926  1.00  0.00     0.142 A 
ATOM      5  C13 MOL     1      -0.080  -0.138  -0.341  1.00  0.00     0.140 A 
ENDROOT
BRANCH   1   6
ATOM      6  C4  MOL     1      -3.629  -0.535   0.117  1.00  0.00     0.223 C 
BRANCH   6   7
ATOM      7  C1  MOL     1      -4.034  -1.871  -0.463  1.00  0.00     0.331 C 
ATOM      8  O1  MOL     1      -3.480  -2.418  -1.407  1.00  0.00    -0.250 OA
BRANCH   7   9
ATOM      9  O2  MOL     1      -5.137  -2.344   0.181  1.00  0.00    -0.464 OA
BRANCH   9  10
ATOM     10  C2  MOL     1      -5.655  -3.606  -0.276  1.00  0.00     0.229 C 
ATOM     11  C3  MOL     1      -6.689  -3.372  -1.357  1.00  0.00     0.049 C 
ENDBRANCH   9  10
ENDBRANCH   7   9
ENDBRANCH   6   7
BRANCH   6  12
ATOM     12  C5  MOL     1      -4.349   0.579  -0.657  1.00  0.00     0.075 C 
BRANCH  12  13
ATOM     13  C6  MOL     1      -3.965   1.987  -0.257  1.00  0.00    -0.045 A 
ATOM     14  C7  MOL     1      -3.564   2.909  -1.236  1.00  0.00     0.004 A 
ATOM     15  C11 MOL     1      -4.028   2.406   1.079  1.00  0.00     0.004 A 
ATOM     16  C8  MOL     1      -3.211   4.213  -0.882  1.00  0.00     0.000 A 
ATOM     17  C10 MOL     1      -3.669   3.710   1.431  1.00  0.00     0.000 A 
ATOM     18  C9  MOL     1      -3.257   4.611   0.451  1.00  0.00     0.000 A 
ENDBRANCH  12  13
ENDBRANCH   6  12
ENDBRANCH   1   6
BRANCH   5  19
ATOM     19  C14 MOL     1       1.278   0.126  -0.906  1.00  0.00     0.239 C 
BRANCH  19  20
ATOM     20  C15 MOL     1       1.970  -1.120  -1.520  1.00  0.00     0.054 C 
ATOM     21  C16 MOL     1       2.135  -2.297  -0.537  1.00  0.00     0.010 C 
ATOM     22  C20 MOL     1       1.260  -1.596  -2.802  1.00  0.00     0.010 C 
ATOM     23  C17 MOL     1       2.858  -3.477  -1.185  1.00  0.00     0.001 C 
ATOM     24  C19 MOL     1       1.995  -2.769  -3.447  1.00  0.00     0.001 C 
ATOM     25  C18 MOL     1       2.169  -3.927  -2.470  1.00  0.00     0.000 C 
ENDBRANCH  19  20
BRANCH  19  26
ATOM     26  N4  MOL     1       2.179   0.676   0.176  1.00  0.00    -0.335 N 
ATOM     27  H27 MOL     1       2.022   0.092   1.010  1.00  0.00     0.347 HD
ATOM     28  H28 MOL     1       3.169   0.577  -0.068  1.00  0.00     0.347 HD
BRANCH  26  29
ATOM     29  C21 MOL     1       1.911   2.084   0.582  1.00  0.00     0.298 C 
BRANCH  29  30
ATOM     30  C22 MOL     1       2.794   2.466   1.738  1.00  0.00     0.010 A 
ATOM     31  C23 MOL     1       4.034   3.110   1.516  1.00  0.00     0.013 A 
ATOM     32  C28 MOL     1       2.412   2.126   3.049  1.00  0.00     0.060 A 
ATOM     33  C24 MOL     1       4.879   3.426   2.586  1.00  0.00     0.051 A 
ATOM     34  C27 MOL     1       3.273   2.443   4.079  1.00  0.00     0.166 A 
ATOM     35  C25 MOL     1       4.470   3.078   3.855  1.00  0.00     0.165 A 
ATOM     36  O4  MOL     1       3.065   2.178   5.395  1.00  0.00    -0.454 OA
ATOM     37  O3  MOL     1       5.160   3.302   5.003  1.00  0.00    -0.454 OA
ATOM     38  C26 MOL     1       4.266   2.729   5.980  1.00  0.00     0.468 C 
ENDBRANCH  29  30
ENDBRANCH  26  29
ENDBRANCH  19  26
ENDBRANCH   5  19
TORSDOF 11
