REMARK SMILES COC(=O)[C@H](CO)n1cc([C@H](C2CCCCC2)[N@H+]2CCc3ccccc3C2)nn1
REMARK SMILES IDX 8 1 29 2 28 3 9 4 10 5 5 6 3 7 4 8 2 9 1 10 6 11 7 12 11 14
REMARK SMILES IDX 12 15 13 16 17 17 14 18 16 19 15 20 18 21 27 22 19 23 26 25
REMARK SMILES IDX 20 26 25 27 21 28 24 29 22 30 23 31
REMARK H PARENT 7 13 18 24
REMARK Flexibility Score: inf
ROOT
ATOM      1  N1  MOL     1       0.047   2.700   1.451  1.00  0.00    -0.235 N 
ATOM      2  N2  MOL     1      -0.090   3.133   0.182  1.00  0.00    -0.066 NA
ATOM      3  N3  MOL     1       0.296   2.159  -0.624  1.00  0.00    -0.129 NA
ATOM      4  C5  MOL     1       0.490   1.405   1.476  1.00  0.00     0.142 A 
ATOM      5  C6  MOL     1       0.669   1.086   0.147  1.00  0.00     0.140 A 
ENDROOT
BRANCH   1   6
ATOM      6  C3  MOL     1      -0.238   3.568   2.581  1.00  0.00     0.244 C 
BRANCH   6   7
ATOM      7  C1  MOL     1      -1.627   4.151   2.479  1.00  0.00     0.333 C 
ATOM      8  O1  MOL     1      -1.885   5.348   2.480  1.00  0.00    -0.250 OA
BRANCH   7   9
ATOM      9  O2  MOL     1      -2.565   3.158   2.438  1.00  0.00    -0.467 OA
ATOM     10  C2  MOL     1      -3.913   3.635   2.371  1.00  0.00     0.282 C 
ENDBRANCH   7   9
ENDBRANCH   6   7
BRANCH   6  11
ATOM     11  C4  MOL     1       0.814   4.670   2.708  1.00  0.00     0.195 C 
BRANCH  11  12
ATOM     12  O3  MOL     1       2.054   4.108   3.148  1.00  0.00    -0.394 OA
ATOM     13  H7  MOL     1       2.701   4.839   3.173  1.00  0.00     0.210 HD
ENDBRANCH  11  12
ENDBRANCH   6  11
ENDBRANCH   1   6
BRANCH   5  14
ATOM     14  C7  MOL     1       1.129  -0.180  -0.518  1.00  0.00     0.241 C 
BRANCH  14  15
ATOM     15  C8  MOL     1       2.675  -0.198  -0.736  1.00  0.00     0.054 C 
ATOM     16  C9  MOL     1       3.205   0.940  -1.632  1.00  0.00     0.010 C 
ATOM     17  C13 MOL     1       3.442  -0.209   0.604  1.00  0.00     0.010 C 
ATOM     18  C10 MOL     1       4.713   0.821  -1.849  1.00  0.00     0.001 C 
ATOM     19  C12 MOL     1       4.950  -0.328   0.384  1.00  0.00     0.001 C 
ATOM     20  C11 MOL     1       5.472   0.778  -0.527  1.00  0.00     0.000 C 
ENDBRANCH  14  15
BRANCH  14  21
ATOM     21  N4  MOL     1       0.370  -0.371  -1.852  1.00  0.00    -0.323 N 
ATOM     22  C14 MOL     1      -1.131  -0.525  -1.653  1.00  0.00     0.299 C 
ATOM     23  C22 MOL     1       0.830  -1.469  -2.779  1.00  0.00     0.267 C 
ATOM     24  H21 MOL     1       0.480   0.532  -2.332  1.00  0.00     0.348 HD
ATOM     25  C15 MOL     1      -1.536  -1.911  -1.230  1.00  0.00     0.010 A 
ATOM     26  C21 MOL     1       0.644  -2.846  -2.142  1.00  0.00     0.097 C 
ATOM     27  C16 MOL     1      -2.779  -2.110  -0.613  1.00  0.00     0.010 A 
ATOM     28  C20 MOL     1      -0.709  -3.021  -1.496  1.00  0.00    -0.034 A 
ATOM     29  C17 MOL     1      -3.184  -3.391  -0.239  1.00  0.00     0.001 A 
ATOM     30  C19 MOL     1      -1.125  -4.302  -1.108  1.00  0.00     0.004 A 
ATOM     31  C18 MOL     1      -2.357  -4.484  -0.484  1.00  0.00     0.000 A 
ENDBRANCH  14  21
ENDBRANCH   5  14
TORSDOF 8
