REMARK SMILES COC(=O)[C@H](Cc1ccc(O)cc1)n1cc([C@H](C2CCCCC2)[N@H+]2CCc3ccccc3C2)nn1
REMARK SMILES IDX 5 1 3 2 4 3 2 4 1 5 6 6 7 7 8 8 13 9 9 10 12 11 10 12 11 13
REMARK SMILES IDX 14 15 35 16 15 17 34 18 16 19 17 20 18 21 19 22 23 23 20 24
REMARK SMILES IDX 22 25 21 26 24 27 25 28 33 29 26 31 32 32 27 33 31 34 28 35
REMARK SMILES IDX 30 36 29 37
REMARK H PARENT 11 14 24 30
REMARK Flexibility Score: inf
ROOT
ATOM      1  C3  MOL     1      -2.159   2.039  -2.450  1.00  0.00     0.223 C 
ENDROOT
BRANCH   1   2
ATOM      2  C1  MOL     1      -2.483   3.390  -1.845  1.00  0.00     0.331 C 
ATOM      3  O1  MOL     1      -3.522   3.678  -1.264  1.00  0.00    -0.250 OA
BRANCH   2   4
ATOM      4  O2  MOL     1      -1.453   4.264  -2.050  1.00  0.00    -0.467 OA
ATOM      5  C2  MOL     1      -1.688   5.588  -1.561  1.00  0.00     0.282 C 
ENDBRANCH   2   4
ENDBRANCH   1   2
BRANCH   1   6
ATOM      6  C4  MOL     1      -3.353   1.062  -2.437  1.00  0.00     0.075 C 
BRANCH   6   7
ATOM      7  C5  MOL     1      -3.489   0.199  -1.200  1.00  0.00    -0.045 A 
ATOM      8  C6  MOL     1      -3.036  -1.130  -1.225  1.00  0.00     0.007 A 
ATOM      9  C10 MOL     1      -4.036   0.707  -0.013  1.00  0.00     0.007 A 
ATOM     10  C7  MOL     1      -3.104  -1.923  -0.079  1.00  0.00     0.046 A 
ATOM     11  C9  MOL     1      -4.092  -0.084   1.137  1.00  0.00     0.046 A 
ATOM     12  C8  MOL     1      -3.613  -1.387   1.097  1.00  0.00     0.115 A 
BRANCH  12  13
ATOM     13  O3  MOL     1      -3.605  -2.175   2.208  1.00  0.00    -0.508 OA
ATOM     14  H9  MOL     1      -4.238  -1.802   2.849  1.00  0.00     0.293 HD
ENDBRANCH  12  13
ENDBRANCH   6   7
ENDBRANCH   1   6
BRANCH   1  15
ATOM     15  N1  MOL     1      -0.943   1.482  -1.879  1.00  0.00    -0.237 N 
ATOM     16  N2  MOL     1      -0.097   0.774  -2.651  1.00  0.00    -0.066 NA
ATOM     17  C28 MOL     1      -0.501   1.513  -0.584  1.00  0.00     0.142 A 
ATOM     18  N3  MOL     1       0.906   0.366  -1.889  1.00  0.00    -0.129 NA
ATOM     19  C11 MOL     1       0.677   0.797  -0.610  1.00  0.00     0.140 A 
BRANCH  19  20
ATOM     20  C12 MOL     1       1.621   0.457   0.506  1.00  0.00     0.241 C 
BRANCH  20  21
ATOM     21  C13 MOL     1       3.089   0.914   0.212  1.00  0.00     0.054 C 
ATOM     22  C14 MOL     1       4.104   0.565   1.321  1.00  0.00     0.010 C 
ATOM     23  C18 MOL     1       3.179   2.440  -0.047  1.00  0.00     0.010 C 
ATOM     24  C15 MOL     1       3.873   1.363   2.604  1.00  0.00     0.001 C 
ATOM     25  C17 MOL     1       2.953   3.272   1.215  1.00  0.00     0.001 C 
ATOM     26  C16 MOL     1       3.901   2.865   2.338  1.00  0.00     0.000 C 
ENDBRANCH  20  21
BRANCH  20  27
ATOM     27  N4  MOL     1       1.555  -1.016   0.920  1.00  0.00    -0.323 N 
ATOM     28  C19 MOL     1       0.186  -1.413   1.441  1.00  0.00     0.267 C 
ATOM     29  C27 MOL     1       1.978  -2.008  -0.144  1.00  0.00     0.299 C 
ATOM     30  H24 MOL     1       2.203  -1.146   1.702  1.00  0.00     0.348 HD
ATOM     31  C20 MOL     1       0.293  -2.741   2.188  1.00  0.00     0.097 C 
ATOM     32  C26 MOL     1       1.889  -3.434   0.337  1.00  0.00     0.010 A 
ATOM     33  C21 MOL     1       1.059  -3.787   1.419  1.00  0.00    -0.034 A 
ATOM     34  C25 MOL     1       2.590  -4.439  -0.346  1.00  0.00     0.010 A 
ATOM     35  C22 MOL     1       0.978  -5.127   1.822  1.00  0.00     0.004 A 
ATOM     36  C24 MOL     1       2.490  -5.769   0.056  1.00  0.00     0.001 A 
ATOM     37  C23 MOL     1       1.688  -6.112   1.141  1.00  0.00     0.000 A 
ENDBRANCH  20  27
ENDBRANCH  19  20
ENDBRANCH   1  15
TORSDOF 9
