REMARK SMILES COC(=O)[C@H](Cc1c[nH]c2ccccc12)n1cc([C@H](C2CCCCC2)[N@@H+]2CCc3ccccc3C2)nn1
REMARK SMILES IDX 16 1 37 2 36 3 17 4 18 5 5 6 3 7 4 8 2 9 1 10 6 11 7 12 8 13
REMARK SMILES IDX 15 14 9 15 10 16 14 17 11 19 13 20 12 21 19 22 20 23 21 24
REMARK SMILES IDX 25 25 22 26 24 27 23 28 26 29 27 30 35 31 28 33 34 34 29 35
REMARK SMILES IDX 33 36 30 37 32 38 31 39
REMARK H PARENT 9 18 26 32
REMARK Flexibility Score: inf
ROOT
ATOM      1  N2  MOL     1       3.380   0.022   0.371  1.00  0.00    -0.237 N 
ATOM      2  N3  MOL     1       3.389  -0.823  -0.680  1.00  0.00    -0.066 NA
ATOM      3  N4  MOL     1       2.139  -1.177  -0.928  1.00  0.00    -0.129 NA
ATOM      4  C13 MOL     1       2.099   0.254   0.793  1.00  0.00     0.142 A 
ATOM      5  C14 MOL     1       1.326  -0.535  -0.029  1.00  0.00     0.140 A 
ENDROOT
BRANCH   1   6
ATOM      6  C3  MOL     1       4.627   0.580   0.867  1.00  0.00     0.223 C 
BRANCH   6   7
ATOM      7  C1  MOL     1       4.638   0.687   2.379  1.00  0.00     0.331 C 
ATOM      8  O1  MOL     1       4.906   1.694   3.020  1.00  0.00    -0.250 OA
BRANCH   7   9
ATOM      9  O2  MOL     1       4.343  -0.521   2.946  1.00  0.00    -0.467 OA
ATOM     10  C2  MOL     1       4.369  -0.527   4.377  1.00  0.00     0.282 C 
ENDBRANCH   7   9
ENDBRANCH   6   7
BRANCH   6  11
ATOM     11  C4  MOL     1       5.021   1.884   0.160  1.00  0.00     0.077 C 
BRANCH  11  12
ATOM     12  C5  MOL     1       3.931   2.912   0.032  1.00  0.00    -0.020 A 
ATOM     13  C6  MOL     1       3.501   3.782   1.014  1.00  0.00     0.087 A 
ATOM     14  C8  MOL     1       3.162   3.206  -1.143  1.00  0.00     0.003 A 
ATOM     15  N1  MOL     1       2.528   4.588   0.488  1.00  0.00    -0.361 N 
ATOM     16  C7  MOL     1       2.296   4.253  -0.827  1.00  0.00     0.046 A 
ATOM     17  C9  MOL     1       3.141   2.694  -2.458  1.00  0.00     0.010 A 
ATOM     18  H8  MOL     1       2.064   5.340   0.980  1.00  0.00     0.166 HD
ATOM     19  C12 MOL     1       1.416   4.819  -1.758  1.00  0.00     0.026 A 
ATOM     20  C10 MOL     1       2.274   3.254  -3.404  1.00  0.00     0.001 A 
ATOM     21  C11 MOL     1       1.426   4.303  -3.057  1.00  0.00     0.002 A 
ENDBRANCH  11  12
ENDBRANCH   6  11
ENDBRANCH   1   6
BRANCH   5  22
ATOM     22  C15 MOL     1      -0.163  -0.705  -0.102  1.00  0.00     0.241 C 
BRANCH  22  23
ATOM     23  C16 MOL     1      -0.645  -1.983   0.654  1.00  0.00     0.054 C 
ATOM     24  C17 MOL     1      -0.155  -3.313   0.047  1.00  0.00     0.010 C 
ATOM     25  C21 MOL     1      -0.283  -1.927   2.155  1.00  0.00     0.010 C 
ATOM     26  C18 MOL     1      -0.713  -4.515   0.810  1.00  0.00     0.001 C 
ATOM     27  C20 MOL     1      -0.842  -3.130   2.915  1.00  0.00     0.001 C 
ATOM     28  C19 MOL     1      -0.378  -4.445   2.297  1.00  0.00     0.000 C 
ENDBRANCH  22  23
BRANCH  22  29
ATOM     29  N5  MOL     1      -0.615  -0.691  -1.577  1.00  0.00    -0.323 N 
ATOM     30  C22 MOL     1      -0.257   0.599  -2.308  1.00  0.00     0.267 C 
ATOM     31  C24 MOL     1      -2.067  -0.978  -1.846  1.00  0.00     0.299 C 
ATOM     32  H26 MOL     1      -0.052  -1.427  -2.024  1.00  0.00     0.348 HD
ATOM     33  C23 MOL     1      -1.045   1.792  -1.759  1.00  0.00     0.097 C 
ATOM     34  C25 MOL     1      -2.968   0.155  -1.443  1.00  0.00     0.010 A 
ATOM     35  C26 MOL     1      -2.489   1.480  -1.442  1.00  0.00    -0.034 A 
ATOM     36  C30 MOL     1      -4.310  -0.095  -1.125  1.00  0.00     0.010 A 
ATOM     37  C27 MOL     1      -3.352   2.527  -1.091  1.00  0.00     0.004 A 
ATOM     38  C29 MOL     1      -5.160   0.956  -0.781  1.00  0.00     0.001 A 
ATOM     39  C28 MOL     1      -4.681   2.264  -0.762  1.00  0.00     0.000 A 
ENDBRANCH  22  29
ENDBRANCH   5  22
TORSDOF 8
