REMARK SMILES COC(=O)[C@H](CCCNC(N)=[NH2+])n1cc([C@H](C2CCCCC2)[N@H+]2CCc3ccccc3C2)nn1
REMARK SMILES IDX 6 1 5 2 3 3 4 4 2 5 1 6 13 7 34 8 14 9 33 10 15 11 16 12
REMARK SMILES IDX 17 13 18 14 22 15 19 16 21 17 20 18 23 19 32 20 24 21 31 23
REMARK SMILES IDX 25 24 30 25 26 26 29 27 27 28 28 29 7 30 8 31 9 32 10 33
REMARK SMILES IDX 11 35 12 36
REMARK H PARENT 23 22 9 34 11 37 11 38 12 39 12 40
REMARK Flexibility Score: inf
ROOT
ATOM      1  C4  MOL     1      -2.949  -2.444  -0.645  1.00  0.00     0.043 C 
ENDROOT
BRANCH   1   2
ATOM      2  C3  MOL     1      -2.145  -1.592  -1.654  1.00  0.00     0.218 C 
BRANCH   2   3
ATOM      3  C1  MOL     1      -3.047  -0.918  -2.677  1.00  0.00     0.330 C 
ATOM      4  O1  MOL     1      -4.250  -1.161  -2.798  1.00  0.00    -0.250 OA
BRANCH   3   5
ATOM      5  O2  MOL     1      -2.344  -0.077  -3.483  1.00  0.00    -0.467 OA
ATOM      6  C2  MOL     1      -3.119   0.597  -4.481  1.00  0.00     0.282 C 
ENDBRANCH   3   5
ENDBRANCH   2   3
BRANCH   2   7
ATOM      7  N4  MOL     1      -1.224  -0.652  -1.032  1.00  0.00    -0.238 N 
ATOM      8  N5  MOL     1      -1.658   0.297  -0.187  1.00  0.00    -0.066 NA
ATOM      9  C8  MOL     1       0.135  -0.577  -1.187  1.00  0.00     0.142 A 
ATOM     10  N6  MOL     1      -0.616   1.018   0.185  1.00  0.00    -0.129 NA
ATOM     11  C9  MOL     1       0.512   0.497  -0.408  1.00  0.00     0.140 A 
BRANCH  11  12
ATOM     12  C10 MOL     1       1.836   1.157  -0.094  1.00  0.00     0.241 C 
BRANCH  12  13
ATOM     13  C11 MOL     1       3.132   0.398  -0.500  1.00  0.00     0.054 C 
ATOM     14  C12 MOL     1       3.267  -1.046   0.035  1.00  0.00     0.010 C 
ATOM     15  C16 MOL     1       3.341   0.454  -2.029  1.00  0.00     0.010 C 
ATOM     16  C13 MOL     1       3.961  -2.005  -0.933  1.00  0.00     0.001 C 
ATOM     17  C15 MOL     1       4.693  -0.124  -2.456  1.00  0.00     0.001 C 
ATOM     18  C14 MOL     1       5.132  -1.332  -1.633  1.00  0.00     0.000 C 
ENDBRANCH  12  13
BRANCH  12  19
ATOM     19  N7  MOL     1       1.837   1.619   1.365  1.00  0.00    -0.323 N 
ATOM     20  C17 MOL     1       2.759   2.769   1.676  1.00  0.00     0.299 C 
ATOM     21  C25 MOL     1       1.916   0.561   2.434  1.00  0.00     0.267 C 
ATOM     22  H29 MOL     1       0.891   2.020   1.467  1.00  0.00     0.348 HD
ATOM     23  C18 MOL     1       2.618   3.258   3.096  1.00  0.00     0.010 A 
ATOM     24  C24 MOL     1       1.382   1.132   3.747  1.00  0.00     0.097 C 
ATOM     25  C19 MOL     1       3.165   4.501   3.452  1.00  0.00     0.010 A 
ATOM     26  C23 MOL     1       1.993   2.469   4.084  1.00  0.00    -0.034 A 
ATOM     27  C20 MOL     1       3.072   4.963   4.765  1.00  0.00     0.001 A 
ATOM     28  C22 MOL     1       1.895   2.952   5.397  1.00  0.00     0.004 A 
ATOM     29  C21 MOL     1       2.435   4.193   5.734  1.00  0.00     0.000 A 
ENDBRANCH  12  19
ENDBRANCH  11  12
ENDBRANCH   2   7
ENDBRANCH   1   2
BRANCH   1  30
ATOM     30  C5  MOL     1      -3.992  -1.681   0.199  1.00  0.00     0.040 C 
BRANCH  30  31
ATOM     31  C6  MOL     1      -5.370  -2.354   0.196  1.00  0.00     0.197 C 
BRANCH  31  32
ATOM     32  N1  MOL     1      -6.001  -2.230  -1.129  1.00  0.00    -0.278 N 
ATOM     33  C7  MOL     1      -7.247  -2.604  -1.442  1.00  0.00     0.338 C 
ATOM     34  H11 MOL     1      -5.471  -1.779  -1.880  1.00  0.00     0.260 HD
ATOM     35  N2  MOL     1      -7.694  -2.410  -2.687  1.00  0.00    -0.291 N 
ATOM     36  N3  MOL     1      -8.060  -3.171  -0.550  1.00  0.00    -0.291 N 
ATOM     37  H12 MOL     1      -7.110  -1.979  -3.395  1.00  0.00     0.256 HD
ATOM     38  H13 MOL     1      -8.635  -2.662  -2.963  1.00  0.00     0.256 HD
ATOM     39  H14 MOL     1      -7.769  -3.325   0.406  1.00  0.00     0.256 HD
ATOM     40  H15 MOL     1      -8.998  -3.462  -0.794  1.00  0.00     0.256 HD
ENDBRANCH  31  32
ENDBRANCH  30  31
ENDBRANCH   1  30
TORSDOF 10
