REMARK SMILES COC(=O)[C@H]([C@H](C)O)n1cc([C@H](C2CCCCC2)[N@@H+]2CCc3ccccc3C2)nn1
REMARK SMILES IDX 9 1 30 2 29 3 10 4 11 5 5 6 3 7 4 8 2 9 1 10 6 11 7 12 8 13
REMARK SMILES IDX 12 15 13 16 14 17 18 18 15 19 17 20 16 21 19 22 28 23 20 24
REMARK SMILES IDX 27 26 21 27 26 28 22 29 25 30 23 31 24 32
REMARK H PARENT 8 14 19 25
REMARK Flexibility Score: inf
ROOT
ATOM      1  N1  MOL     1      -0.386   1.916  -2.285  1.00  0.00    -0.235 N 
ATOM      2  N2  MOL     1       0.313   0.782  -2.498  1.00  0.00    -0.066 NA
ATOM      3  N3  MOL     1       0.260   0.056  -1.393  1.00  0.00    -0.129 NA
ATOM      4  C6  MOL     1      -0.952   1.901  -1.040  1.00  0.00     0.142 A 
ATOM      5  C7  MOL     1      -0.508   0.727  -0.476  1.00  0.00     0.140 A 
ENDROOT
BRANCH   1   6
ATOM      6  C3  MOL     1      -0.425   2.945  -3.314  1.00  0.00     0.246 C 
BRANCH   6   7
ATOM      7  C1  MOL     1       0.368   4.145  -2.854  1.00  0.00     0.333 C 
ATOM      8  O1  MOL     1       0.123   4.797  -1.844  1.00  0.00    -0.250 OA
BRANCH   7   9
ATOM      9  O2  MOL     1       1.387   4.411  -3.716  1.00  0.00    -0.467 OA
ATOM     10  C2  MOL     1       2.220   5.507  -3.326  1.00  0.00     0.282 C 
ENDBRANCH   7   9
ENDBRANCH   6   7
BRANCH   6  11
ATOM     11  C4  MOL     1      -1.856   3.325  -3.734  1.00  0.00     0.147 C 
ATOM     12  C5  MOL     1      -1.887   4.245  -4.950  1.00  0.00     0.041 C 
BRANCH  11  13
ATOM     13  O3  MOL     1      -2.608   3.933  -2.680  1.00  0.00    -0.391 OA
ATOM     14  H9  MOL     1      -2.253   4.830  -2.509  1.00  0.00     0.211 HD
ENDBRANCH  11  13
ENDBRANCH   6  11
ENDBRANCH   1   6
BRANCH   5  15
ATOM     15  C8  MOL     1      -0.766   0.117   0.875  1.00  0.00     0.241 C 
BRANCH  15  16
ATOM     16  C9  MOL     1       0.280   0.586   1.935  1.00  0.00     0.054 C 
ATOM     17  C10 MOL     1       0.162   2.098   2.229  1.00  0.00     0.010 C 
ATOM     18  C14 MOL     1       1.740   0.232   1.579  1.00  0.00     0.010 C 
ATOM     19  C11 MOL     1       1.134   2.536   3.324  1.00  0.00     0.001 C 
ATOM     20  C13 MOL     1       2.715   0.684   2.666  1.00  0.00     0.001 C 
ATOM     21  C12 MOL     1       2.572   2.173   2.969  1.00  0.00     0.000 C 
ENDBRANCH  15  16
BRANCH  15  22
ATOM     22  N4  MOL     1      -0.809  -1.420   0.756  1.00  0.00    -0.323 N 
ATOM     23  C15 MOL     1      -0.867  -2.176   2.059  1.00  0.00     0.299 C 
ATOM     24  C23 MOL     1      -1.933  -1.902  -0.154  1.00  0.00     0.267 C 
ATOM     25  H23 MOL     1       0.072  -1.676   0.284  1.00  0.00     0.348 HD
ATOM     26  C16 MOL     1      -1.067  -3.661   1.907  1.00  0.00     0.010 A 
ATOM     27  C22 MOL     1      -1.689  -3.362  -0.528  1.00  0.00     0.097 C 
ATOM     28  C17 MOL     1      -0.868  -4.497   3.018  1.00  0.00     0.010 A 
ATOM     29  C21 MOL     1      -1.478  -4.227   0.686  1.00  0.00    -0.034 A 
ATOM     30  C18 MOL     1      -1.054  -5.875   2.908  1.00  0.00     0.001 A 
ATOM     31  C20 MOL     1      -1.648  -5.614   0.584  1.00  0.00     0.004 A 
ATOM     32  C19 MOL     1      -1.441  -6.432   1.692  1.00  0.00     0.000 A 
ENDBRANCH  15  22
ENDBRANCH   5  15
TORSDOF 8
