REMARK SMILES COC(=O)[C@H](C(C)C)n1cc([C@@H]([NH2+]Cc2ccc3c(c2)OCO3)C2CCCCC2)nn1
REMARK SMILES IDX 9 1 31 2 30 3 10 4 11 5 5 6 6 7 7 8 8 9 3 10 4 11 2 12 1 13
REMARK SMILES IDX 12 14 24 15 25 16 29 17 26 18 28 19 27 20 13 21 14 24 15 25
REMARK SMILES IDX 20 26 16 27 19 28 17 29 18 30 21 31 23 32 22 33
REMARK H PARENT 13 22 13 23
REMARK Flexibility Score: inf
ROOT
ATOM      1  N1  MOL     1       1.886   0.257   1.726  1.00  0.00    -0.237 N 
ATOM      2  N2  MOL     1       1.072   0.752   2.686  1.00  0.00    -0.066 NA
ATOM      3  N3  MOL     1      -0.019   1.220   2.104  1.00  0.00    -0.129 NA
ATOM      4  C7  MOL     1       1.285   0.364   0.501  1.00  0.00     0.142 A 
ATOM      5  C8  MOL     1       0.092   1.002   0.756  1.00  0.00     0.140 A 
ENDROOT
BRANCH   1   6
ATOM      6  C4  MOL     1       3.155  -0.360   2.122  1.00  0.00     0.221 C 
BRANCH   6   7
ATOM      7  C2  MOL     1       2.984  -1.863   2.458  1.00  0.00     0.019 C 
ATOM      8  C1  MOL     1       4.190  -2.415   3.227  1.00  0.00     0.010 C 
ATOM      9  C3  MOL     1       2.706  -2.746   1.236  1.00  0.00     0.010 C 
ENDBRANCH   6   7
BRANCH   6  10
ATOM     10  C5  MOL     1       4.270  -0.083   1.126  1.00  0.00     0.330 C 
ATOM     11  O2  MOL     1       4.141  -0.018  -0.089  1.00  0.00    -0.250 OA
BRANCH  10  12
ATOM     12  O1  MOL     1       5.459   0.054   1.781  1.00  0.00    -0.467 OA
ATOM     13  C6  MOL     1       6.584   0.291   0.930  1.00  0.00     0.282 C 
ENDBRANCH  10  12
ENDBRANCH   6  10
ENDBRANCH   1   6
BRANCH   5  14
ATOM     14  C9  MOL     1      -1.021   1.402  -0.157  1.00  0.00     0.239 C 
BRANCH  14  15
ATOM     15  C10 MOL     1      -0.793   2.804  -0.785  1.00  0.00     0.054 C 
ATOM     16  C11 MOL     1      -0.897   3.969   0.219  1.00  0.00     0.010 C 
ATOM     17  C15 MOL     1      -1.734   3.046  -1.983  1.00  0.00     0.010 C 
ATOM     18  C12 MOL     1      -0.636   5.316  -0.453  1.00  0.00     0.001 C 
ATOM     19  C14 MOL     1      -1.469   4.397  -2.646  1.00  0.00     0.001 C 
ATOM     20  C13 MOL     1      -1.560   5.542  -1.644  1.00  0.00     0.000 C 
ENDBRANCH  14  15
BRANCH  14  21
ATOM     21  N4  MOL     1      -2.338   1.362   0.580  1.00  0.00    -0.335 N 
ATOM     22  H25 MOL     1      -2.161   1.792   1.500  1.00  0.00     0.347 HD
ATOM     23  H26 MOL     1      -3.041   1.938   0.110  1.00  0.00     0.347 HD
BRANCH  21  24
ATOM     24  C16 MOL     1      -2.909   0.005   0.825  1.00  0.00     0.298 C 
BRANCH  24  25
ATOM     25  C17 MOL     1      -3.413  -0.641  -0.436  1.00  0.00     0.010 A 
ATOM     26  C18 MOL     1      -2.683  -1.684  -1.033  1.00  0.00     0.060 A 
ATOM     27  C23 MOL     1      -4.601  -0.179  -1.054  1.00  0.00     0.013 A 
ATOM     28  C19 MOL     1      -3.151  -2.210  -2.220  1.00  0.00     0.166 A 
ATOM     29  C22 MOL     1      -5.048  -0.738  -2.256  1.00  0.00     0.051 A 
ATOM     30  C20 MOL     1      -4.299  -1.750  -2.815  1.00  0.00     0.165 A 
ATOM     31  O4  MOL     1      -2.559  -3.205  -2.932  1.00  0.00    -0.454 OA
ATOM     32  O3  MOL     1      -4.578  -2.400  -3.975  1.00  0.00    -0.454 OA
ATOM     33  C21 MOL     1      -3.486  -3.343  -4.033  1.00  0.00     0.468 C 
ENDBRANCH  24  25
ENDBRANCH  21  24
ENDBRANCH  14  21
ENDBRANCH   5  14
TORSDOF 9
