REMARK SMILES COC(=O)[C@H](CCC(=O)[O-])n1cc([C@@H]([NH2+]Cc2ccc3c(c2)OCO3)C2CCCCC2)nn1
REMARK SMILES IDX 11 1 33 2 32 3 12 4 13 5 5 6 3 7 4 8 2 9 1 10 6 11 7 12 8 13
REMARK SMILES IDX 10 14 9 15 14 16 26 17 27 18 31 19 28 20 30 21 29 22 15 23
REMARK SMILES IDX 16 26 17 27 22 28 18 29 21 30 19 31 20 32 23 33 25 34 24 35
REMARK H PARENT 15 24 15 25
REMARK Flexibility Score: inf
ROOT
ATOM      1  N1  MOL     1      -0.086   1.133   1.821  1.00  0.00    -0.238 N 
ATOM      2  N2  MOL     1      -1.261   0.556   2.134  1.00  0.00    -0.066 NA
ATOM      3  N3  MOL     1      -1.658  -0.122   1.068  1.00  0.00    -0.129 NA
ATOM      4  C7  MOL     1       0.118   1.092   0.471  1.00  0.00     0.142 A 
ATOM      5  C8  MOL     1      -0.763   0.111   0.058  1.00  0.00     0.140 A 
ENDROOT
BRANCH   1   6
ATOM      6  C3  MOL     1       0.846   1.501   2.867  1.00  0.00     0.219 C 
BRANCH   6   7
ATOM      7  C1  MOL     1       0.792   3.003   3.046  1.00  0.00     0.330 C 
ATOM      8  O1  MOL     1       1.097   3.821   2.187  1.00  0.00    -0.250 OA
BRANCH   7   9
ATOM      9  O2  MOL     1       0.364   3.322   4.302  1.00  0.00    -0.467 OA
ATOM     10  C2  MOL     1       0.240   4.725   4.544  1.00  0.00     0.282 C 
ENDBRANCH   7   9
ENDBRANCH   6   7
BRANCH   6  11
ATOM     11  C4  MOL     1       2.311   1.050   2.649  1.00  0.00     0.045 C 
BRANCH  11  12
ATOM     12  C5  MOL     1       2.529  -0.471   2.621  1.00  0.00     0.055 C 
BRANCH  12  13
ATOM     13  C6  MOL     1       2.176  -1.142   1.313  1.00  0.00     0.041 C 
ATOM     14  O3  MOL     1       1.420  -2.155   1.337  1.00  0.00    -0.550 OA
ATOM     15  O4  MOL     1       2.546  -0.588   0.233  1.00  0.00    -0.550 OA
ENDBRANCH  12  13
ENDBRANCH  11  12
ENDBRANCH   6  11
ENDBRANCH   1   6
BRANCH   5  16
ATOM     16  C9  MOL     1      -0.661  -0.759  -1.166  1.00  0.00     0.239 C 
BRANCH  16  17
ATOM     17  C10 MOL     1      -1.915  -1.613  -1.492  1.00  0.00     0.054 C 
ATOM     18  C11 MOL     1      -3.167  -0.747  -1.714  1.00  0.00     0.010 C 
ATOM     19  C15 MOL     1      -2.189  -2.765  -0.498  1.00  0.00     0.010 C 
ATOM     20  C12 MOL     1      -4.346  -1.567  -2.248  1.00  0.00     0.001 C 
ATOM     21  C14 MOL     1      -3.666  -3.152  -0.401  1.00  0.00     0.001 C 
ATOM     22  C13 MOL     1      -4.375  -3.008  -1.739  1.00  0.00     0.000 C 
ENDBRANCH  16  17
BRANCH  16  23
ATOM     23  N4  MOL     1       0.546  -1.627  -1.027  1.00  0.00    -0.335 N 
ATOM     24  H22 MOL     1       0.534  -2.135  -0.106  1.00  0.00     0.347 HD
ATOM     25  H23 MOL     1       1.363  -1.012  -0.785  1.00  0.00     0.347 HD
BRANCH  23  26
ATOM     26  C16 MOL     1       1.028  -2.509  -2.091  1.00  0.00     0.298 C 
BRANCH  26  27
ATOM     27  C17 MOL     1       1.384  -1.781  -3.360  1.00  0.00     0.010 A 
ATOM     28  C18 MOL     1       0.633  -1.979  -4.531  1.00  0.00     0.060 A 
ATOM     29  C23 MOL     1       2.475  -0.878  -3.377  1.00  0.00     0.013 A 
ATOM     30  C19 MOL     1       0.992  -1.270  -5.659  1.00  0.00     0.166 A 
ATOM     31  C22 MOL     1       2.812  -0.175  -4.537  1.00  0.00     0.051 A 
ATOM     32  C20 MOL     1       2.049  -0.393  -5.663  1.00  0.00     0.165 A 
ATOM     33  O6  MOL     1       0.372  -1.339  -6.867  1.00  0.00    -0.454 OA
ATOM     34  O5  MOL     1       2.228   0.200  -6.872  1.00  0.00    -0.454 OA
ATOM     35  C21 MOL     1       1.156  -0.397  -7.630  1.00  0.00     0.468 C 
ENDBRANCH  26  27
ENDBRANCH  23  26
ENDBRANCH  16  23
ENDBRANCH   5  16
TORSDOF 11
