REMARK SMILES COC(=O)[C@H](Cc1c[nH]c[nH+]1)n1cc([C@@H]([NH2+]Cc2ccc3c(c2)OCO3)C2CCCCC2)nn1
REMARK SMILES IDX 12 1 34 2 33 3 13 4 14 5 5 6 3 7 4 8 2 9 1 10 6 11 7 12 8 13
REMARK SMILES IDX 11 14 9 15 10 16 15 19 27 20 28 21 32 22 29 23 31 24 30 25
REMARK SMILES IDX 16 26 17 29 18 30 19 31 23 32 20 33 22 34 21 35 24 36 26 37
REMARK SMILES IDX 25 38
REMARK H PARENT 11 17 9 18 16 27 16 28
REMARK Flexibility Score: inf
ROOT
ATOM      1  N3  MOL     1      -0.398   1.184  -1.989  1.00  0.00    -0.237 N 
ATOM      2  N4  MOL     1      -1.540   1.529  -1.357  1.00  0.00    -0.066 NA
ATOM      3  N5  MOL     1      -1.735   0.665  -0.369  1.00  0.00    -0.129 NA
ATOM      4  C8  MOL     1       0.162   0.085  -1.401  1.00  0.00     0.142 A 
ATOM      5  C9  MOL     1      -0.693  -0.231  -0.367  1.00  0.00     0.140 A 
ENDROOT
BRANCH   1   6
ATOM      6  C3  MOL     1       0.085   1.906  -3.161  1.00  0.00     0.226 C 
BRANCH   6   7
ATOM      7  C1  MOL     1       0.840   3.173  -2.815  1.00  0.00     0.331 C 
ATOM      8  O1  MOL     1       1.084   4.037  -3.652  1.00  0.00    -0.250 OA
BRANCH   7   9
ATOM      9  O2  MOL     1       1.241   3.212  -1.518  1.00  0.00    -0.467 OA
ATOM     10  C2  MOL     1       2.075   4.330  -1.185  1.00  0.00     0.282 C 
ENDBRANCH   7   9
ENDBRANCH   6   7
BRANCH   6  11
ATOM     11  C4  MOL     1      -0.991   2.152  -4.231  1.00  0.00     0.123 C 
BRANCH  11  12
ATOM     12  C5  MOL     1      -1.873   3.333  -4.001  1.00  0.00     0.142 A 
ATOM     13  C6  MOL     1      -2.161   4.422  -4.793  1.00  0.00     0.244 A 
ATOM     14  N2  MOL     1      -2.638   3.519  -2.853  1.00  0.00    -0.248 N 
ATOM     15  N1  MOL     1      -3.066   5.199  -4.101  1.00  0.00    -0.250 N 
ATOM     16  C7  MOL     1      -3.345   4.657  -2.916  1.00  0.00     0.399 A 
ATOM     17  H10 MOL     1      -2.645   2.891  -2.045  1.00  0.00     0.311 HD
ATOM     18  H8  MOL     1      -3.459   6.079  -4.435  1.00  0.00     0.311 HD
ENDBRANCH  11  12
ENDBRANCH   6  11
ENDBRANCH   1   6
BRANCH   5  19
ATOM     19  C10 MOL     1      -0.595  -1.328   0.657  1.00  0.00     0.239 C 
BRANCH  19  20
ATOM     20  C11 MOL     1      -1.086  -2.691   0.083  1.00  0.00     0.054 C 
ATOM     21  C12 MOL     1      -2.607  -2.758  -0.164  1.00  0.00     0.010 C 
ATOM     22  C16 MOL     1      -0.635  -3.878   0.957  1.00  0.00     0.010 C 
ATOM     23  C13 MOL     1      -3.019  -4.101  -0.766  1.00  0.00     0.001 C 
ATOM     24  C15 MOL     1      -1.051  -5.216   0.348  1.00  0.00     0.001 C 
ATOM     25  C14 MOL     1      -2.554  -5.271   0.096  1.00  0.00     0.000 C 
ENDBRANCH  19  20
BRANCH  19  26
ATOM     26  N6  MOL     1      -1.322  -1.011   1.941  1.00  0.00    -0.335 N 
ATOM     27  H24 MOL     1      -2.305  -0.832   1.709  1.00  0.00     0.347 HD
ATOM     28  H25 MOL     1      -1.306  -1.825   2.562  1.00  0.00     0.347 HD
BRANCH  26  29
ATOM     29  C17 MOL     1      -0.843   0.167   2.731  1.00  0.00     0.298 C 
BRANCH  29  30
ATOM     30  C18 MOL     1       0.614   0.111   3.083  1.00  0.00     0.010 A 
ATOM     31  C19 MOL     1       1.076  -0.750   4.110  1.00  0.00     0.013 A 
ATOM     32  C24 MOL     1       1.538   0.904   2.376  1.00  0.00     0.060 A 
ATOM     33  C20 MOL     1       2.438  -0.809   4.437  1.00  0.00     0.051 A 
ATOM     34  C23 MOL     1       2.874   0.816   2.718  1.00  0.00     0.166 A 
ATOM     35  C21 MOL     1       3.311  -0.013   3.722  1.00  0.00     0.165 A 
ATOM     36  O4  MOL     1       3.890   1.508   2.135  1.00  0.00    -0.454 OA
ATOM     37  O3  MOL     1       4.656   0.070   3.910  1.00  0.00    -0.454 OA
ATOM     38  C22 MOL     1       5.017   1.065   2.930  1.00  0.00     0.468 C 
ENDBRANCH  29  30
ENDBRANCH  26  29
ENDBRANCH  19  26
ENDBRANCH   5  19
TORSDOF 10
