REMARK SMILES COC(=O)[C@H](CC(C)C)n1cc([C@@H]([NH2+]Cc2ccc3c(c2)OCO3)C2CCCCC2)nn1
REMARK SMILES IDX 10 1 32 2 31 3 11 4 12 5 5 6 3 7 4 8 2 9 1 10 6 11 7 12 8 13
REMARK SMILES IDX 9 14 13 15 25 16 26 17 30 18 27 19 29 20 28 21 14 22 15 25
REMARK SMILES IDX 16 26 21 27 17 28 20 29 18 30 19 31 22 32 24 33 23 34
REMARK H PARENT 14 23 14 24
REMARK Flexibility Score: inf
ROOT
ATOM      1  N1  MOL     1       2.094   1.220  -1.980  1.00  0.00    -0.238 N 
ATOM      2  N2  MOL     1       2.096   1.300  -0.634  1.00  0.00    -0.066 NA
ATOM      3  N3  MOL     1       1.283   0.368  -0.170  1.00  0.00    -0.129 NA
ATOM      4  C8  MOL     1       1.291   0.193  -2.402  1.00  0.00     0.142 A 
ATOM      5  C9  MOL     1       0.783  -0.336  -1.236  1.00  0.00     0.140 A 
ENDROOT
BRANCH   1   6
ATOM      6  C3  MOL     1       2.853   2.156  -2.793  1.00  0.00     0.219 C 
BRANCH   6   7
ATOM      7  C1  MOL     1       4.341   1.880  -2.655  1.00  0.00     0.330 C 
ATOM      8  O1  MOL     1       5.195   2.727  -2.428  1.00  0.00    -0.250 OA
BRANCH   7   9
ATOM      9  O2  MOL     1       4.613   0.560  -2.891  1.00  0.00    -0.467 OA
ATOM     10  C2  MOL     1       6.003   0.230  -2.801  1.00  0.00     0.282 C 
ENDBRANCH   7   9
ENDBRANCH   6   7
BRANCH   6  11
ATOM     11  C4  MOL     1       2.524   3.630  -2.479  1.00  0.00     0.042 C 
BRANCH  11  12
ATOM     12  C5  MOL     1       1.039   4.023  -2.626  1.00  0.00    -0.015 C 
ATOM     13  C6  MOL     1       0.849   5.486  -2.214  1.00  0.00     0.007 C 
ATOM     14  C7  MOL     1       0.517   3.818  -4.049  1.00  0.00     0.007 C 
ENDBRANCH  11  12
ENDBRANCH   6  11
ENDBRANCH   1   6
BRANCH   5  15
ATOM     15  C10 MOL     1      -0.146  -1.486  -0.990  1.00  0.00     0.239 C 
BRANCH  15  16
ATOM     16  C11 MOL     1      -1.602  -1.163  -1.421  1.00  0.00     0.054 C 
ATOM     17  C12 MOL     1      -2.465  -2.437  -1.507  1.00  0.00     0.010 C 
ATOM     18  C16 MOL     1      -2.296  -0.108  -0.536  1.00  0.00     0.010 C 
ATOM     19  C13 MOL     1      -3.878  -2.128  -1.998  1.00  0.00     0.001 C 
ATOM     20  C15 MOL     1      -3.710   0.195  -1.030  1.00  0.00     0.001 C 
ATOM     21  C14 MOL     1      -4.555  -1.070  -1.133  1.00  0.00     0.000 C 
ENDBRANCH  15  16
BRANCH  15  22
ATOM     22  N4  MOL     1      -0.105  -1.888   0.460  1.00  0.00    -0.335 N 
ATOM     23  H27 MOL     1      -0.951  -2.383   0.758  1.00  0.00     0.347 HD
ATOM     24  H28 MOL     1      -0.081  -1.011   1.004  1.00  0.00     0.347 HD
BRANCH  22  25
ATOM     25  C17 MOL     1       1.089  -2.679   0.871  1.00  0.00     0.298 C 
BRANCH  25  26
ATOM     26  C18 MOL     1       1.146  -2.796   2.369  1.00  0.00     0.010 A 
ATOM     27  C19 MOL     1       0.590  -3.909   3.019  1.00  0.00     0.060 A 
ATOM     28  C24 MOL     1       1.715  -1.750   3.136  1.00  0.00     0.013 A 
ATOM     29  C20 MOL     1       0.632  -3.942   4.399  1.00  0.00     0.166 A 
ATOM     30  C23 MOL     1       1.740  -1.815   4.533  1.00  0.00     0.051 A 
ATOM     31  C21 MOL     1       1.191  -2.925   5.134  1.00  0.00     0.165 A 
ATOM     32  O4  MOL     1       0.144  -4.940   5.181  1.00  0.00    -0.454 OA
ATOM     33  O3  MOL     1       1.130  -3.157   6.470  1.00  0.00    -0.454 OA
ATOM     34  C22 MOL     1       0.476  -4.443   6.498  1.00  0.00     0.468 C 
ENDBRANCH  25  26
ENDBRANCH  22  25
ENDBRANCH  15  22
ENDBRANCH   5  15
TORSDOF 10
