REMARK SMILES COC(=O)[C@H](CCCC[NH3+])n1cc([C@@H]([NH2+]Cc2ccc3c(c2)OCO3)C2CCCCC2)nn1
REMARK SMILES IDX 5 1 3 2 4 3 2 4 1 5 6 6 7 7 8 8 9 9 10 10 11 14 33 15 12 16
REMARK SMILES IDX 32 17 13 18 14 19 26 20 27 21 31 22 28 23 30 24 29 25 15 26
REMARK SMILES IDX 16 29 17 30 22 31 18 32 21 33 19 34 20 35 23 36 25 37 24 38
REMARK H PARENT 10 11 10 12 10 13 15 27 15 28
REMARK Flexibility Score: inf
ROOT
ATOM      1  C3  MOL     1       2.149   1.115   1.270  1.00  0.00     0.218 C 
ENDROOT
BRANCH   1   2
ATOM      2  C1  MOL     1       2.526   2.004   2.449  1.00  0.00     0.330 C 
ATOM      3  O1  MOL     1       3.262   2.989   2.346  1.00  0.00    -0.250 OA
BRANCH   2   4
ATOM      4  O2  MOL     1       2.042   1.500   3.618  1.00  0.00    -0.467 OA
ATOM      5  C2  MOL     1       2.297   2.304   4.777  1.00  0.00     0.282 C 
ENDBRANCH   2   4
ENDBRANCH   1   2
BRANCH   1   6
ATOM      6  C4  MOL     1       2.830   1.643  -0.014  1.00  0.00     0.040 C 
BRANCH   6   7
ATOM      7  C5  MOL     1       4.349   1.397  -0.017  1.00  0.00     0.009 C 
BRANCH   7   8
ATOM      8  C6  MOL     1       5.117   2.412  -0.877  1.00  0.00     0.061 C 
BRANCH   8   9
ATOM      9  C7  MOL     1       5.822   3.511  -0.074  1.00  0.00     0.258 C 
BRANCH   9  10
ATOM     10  N1  MOL     1       4.863   4.356   0.666  1.00  0.00    -0.358 N 
ATOM     11  H13 MOL     1       4.341   3.854   1.418  1.00  0.00     0.344 HD
ATOM     12  H14 MOL     1       5.343   5.131   1.144  1.00  0.00     0.344 HD
ATOM     13  H15 MOL     1       4.157   4.778   0.048  1.00  0.00     0.344 HD
ENDBRANCH   9  10
ENDBRANCH   8   9
ENDBRANCH   7   8
ENDBRANCH   6   7
ENDBRANCH   1   6
BRANCH   1  14
ATOM     14  N2  MOL     1       0.706   1.041   1.093  1.00  0.00    -0.238 N 
ATOM     15  N3  MOL     1      -0.098   2.069   1.409  1.00  0.00    -0.066 NA
ATOM     16  C8  MOL     1      -0.009   0.025   0.517  1.00  0.00     0.142 A 
ATOM     17  N4  MOL     1      -1.343   1.715   1.115  1.00  0.00    -0.129 NA
ATOM     18  C9  MOL     1      -1.310   0.486   0.512  1.00  0.00     0.140 A 
BRANCH  18  19
ATOM     19  C10 MOL     1      -2.568  -0.182   0.064  1.00  0.00     0.239 C 
BRANCH  19  20
ATOM     20  C11 MOL     1      -3.223   0.361  -1.240  1.00  0.00     0.054 C 
ATOM     21  C12 MOL     1      -2.301   0.234  -2.473  1.00  0.00     0.010 C 
ATOM     22  C16 MOL     1      -3.906   1.740  -1.168  1.00  0.00     0.010 C 
ATOM     23  C13 MOL     1      -1.422   1.453  -2.746  1.00  0.00     0.001 C 
ATOM     24  C15 MOL     1      -3.017   2.936  -1.493  1.00  0.00     0.001 C 
ATOM     25  C14 MOL     1      -2.244   2.733  -2.788  1.00  0.00     0.000 C 
ENDBRANCH  19  20
BRANCH  19  26
ATOM     26  N5  MOL     1      -3.600  -0.182   1.171  1.00  0.00    -0.335 N 
ATOM     27  H29 MOL     1      -3.665   0.782   1.527  1.00  0.00     0.347 HD
ATOM     28  H30 MOL     1      -4.522  -0.420   0.790  1.00  0.00     0.347 HD
BRANCH  26  29
ATOM     29  C17 MOL     1      -3.334  -1.081   2.338  1.00  0.00     0.298 C 
BRANCH  29  30
ATOM     30  C18 MOL     1      -3.215  -2.528   1.945  1.00  0.00     0.010 A 
ATOM     31  C19 MOL     1      -1.957  -3.155   1.951  1.00  0.00     0.060 A 
ATOM     32  C24 MOL     1      -4.351  -3.250   1.509  1.00  0.00     0.013 A 
ATOM     33  C20 MOL     1      -1.878  -4.454   1.493  1.00  0.00     0.166 A 
ATOM     34  C23 MOL     1      -4.234  -4.567   1.053  1.00  0.00     0.051 A 
ATOM     35  C21 MOL     1      -2.983  -5.140   1.049  1.00  0.00     0.165 A 
ATOM     36  O4  MOL     1      -0.740  -5.192   1.402  1.00  0.00    -0.454 OA
ATOM     37  O3  MOL     1      -2.680  -6.397   0.629  1.00  0.00    -0.454 OA
ATOM     38  C22 MOL     1      -1.256  -6.436   0.868  1.00  0.00     0.468 C 
ENDBRANCH  29  30
ENDBRANCH  26  29
ENDBRANCH  19  26
ENDBRANCH  18  19
ENDBRANCH   1  14
TORSDOF 13
