REMARK SMILES CCOC(=O)[C@H](CCSC)n1cc([C@@H]([NH2+]Cc2ccc3c(c2)OCO3)C2CCCCC2)nn1
REMARK SMILES IDX 11 1 33 2 32 3 12 4 13 5 6 6 4 7 5 8 3 9 2 10 1 11 7 12 8 13
REMARK SMILES IDX 9 14 10 15 14 16 26 17 27 18 31 19 28 20 30 21 29 22 15 23
REMARK SMILES IDX 16 26 17 27 22 28 18 29 21 30 19 31 20 32 23 33 25 34 24 35
REMARK H PARENT 15 24 15 25
REMARK Flexibility Score: inf
ROOT
ATOM      1  N1  MOL     1      -2.191  -0.912  -0.663  1.00  0.00    -0.238 N 
ATOM      2  N2  MOL     1      -1.947  -2.242  -0.674  1.00  0.00    -0.066 NA
ATOM      3  N3  MOL     1      -0.654  -2.421  -0.898  1.00  0.00    -0.129 NA
ATOM      4  C8  MOL     1      -1.019  -0.219  -0.796  1.00  0.00     0.142 A 
ATOM      5  C9  MOL     1      -0.064  -1.190  -0.988  1.00  0.00     0.140 A 
ENDROOT
BRANCH   1   6
ATOM      6  C4  MOL     1      -3.548  -0.438  -0.397  1.00  0.00     0.219 C 
BRANCH   6   7
ATOM      7  C1  MOL     1      -3.844   0.915  -1.030  1.00  0.00     0.331 C 
ATOM      8  O1  MOL     1      -3.144   1.470  -1.868  1.00  0.00    -0.250 OA
BRANCH   7   9
ATOM      9  O2  MOL     1      -5.045   1.398  -0.598  1.00  0.00    -0.464 OA
BRANCH   9  10
ATOM     10  C2  MOL     1      -5.443   2.675  -1.121  1.00  0.00     0.229 C 
ATOM     11  C3  MOL     1      -6.229   2.493  -2.404  1.00  0.00     0.049 C 
ENDBRANCH   9  10
ENDBRANCH   7   9
ENDBRANCH   6   7
BRANCH   6  12
ATOM     12  C5  MOL     1      -3.931  -0.568   1.095  1.00  0.00     0.050 C 
BRANCH  12  13
ATOM     13  C6  MOL     1      -2.934  -0.032   2.127  1.00  0.00     0.072 C 
BRANCH  13  14
ATOM     14  S1  MOL     1      -2.503   1.724   1.938  1.00  0.00    -0.165 SA
ATOM     15  C7  MOL     1      -3.984   2.475   2.668  1.00  0.00     0.085 C 
ENDBRANCH  13  14
ENDBRANCH  12  13
ENDBRANCH   6  12
ENDBRANCH   1   6
BRANCH   5  16
ATOM     16  C10 MOL     1       1.415  -1.075  -1.184  1.00  0.00     0.239 C 
BRANCH  16  17
ATOM     17  C11 MOL     1       1.831  -1.303  -2.672  1.00  0.00     0.054 C 
ATOM     18  C12 MOL     1       3.355  -1.236  -2.921  1.00  0.00     0.010 C 
ATOM     19  C16 MOL     1       1.161  -0.293  -3.633  1.00  0.00     0.010 C 
ATOM     20  C13 MOL     1       3.922   0.169  -2.720  1.00  0.00     0.001 C 
ATOM     21  C15 MOL     1       1.692   1.130  -3.456  1.00  0.00     0.001 C 
ATOM     22  C14 MOL     1       3.210   1.191  -3.603  1.00  0.00     0.000 C 
ENDBRANCH  16  17
BRANCH  16  23
ATOM     23  N4  MOL     1       2.112  -2.102  -0.311  1.00  0.00    -0.335 N 
ATOM     24  H27 MOL     1       3.113  -2.122  -0.509  1.00  0.00     0.347 HD
ATOM     25  H28 MOL     1       1.724  -3.018  -0.573  1.00  0.00     0.347 HD
BRANCH  23  26
ATOM     26  C17 MOL     1       1.940  -1.943   1.166  1.00  0.00     0.298 C 
BRANCH  26  27
ATOM     27  C18 MOL     1       2.509  -0.654   1.691  1.00  0.00     0.010 A 
ATOM     28  C19 MOL     1       3.898  -0.438   1.694  1.00  0.00     0.060 A 
ATOM     29  C24 MOL     1       1.647   0.365   2.163  1.00  0.00     0.013 A 
ATOM     30  C20 MOL     1       4.366   0.775   2.154  1.00  0.00     0.166 A 
ATOM     31  C23 MOL     1       2.155   1.583   2.626  1.00  0.00     0.051 A 
ATOM     32  C21 MOL     1       3.521   1.757   2.608  1.00  0.00     0.165 A 
ATOM     33  O4  MOL     1       5.672   1.145   2.214  1.00  0.00    -0.454 OA
ATOM     34  O3  MOL     1       4.188   2.868   3.013  1.00  0.00    -0.454 OA
ATOM     35  C22 MOL     1       5.556   2.471   2.779  1.00  0.00     0.468 C 
ENDBRANCH  26  27
ENDBRANCH  23  26
ENDBRANCH  16  23
ENDBRANCH   5  16
TORSDOF 12
