REMARK SMILES COC(=O)[C@H](C)n1cc([C@@H]([NH2+]Cc2ccc3c(c2)OCO3)C2CCCCC2)nn1
REMARK SMILES IDX 7 1 29 2 28 3 8 4 9 5 5 6 6 7 3 8 4 9 2 10 1 11 10 12 22 13
REMARK SMILES IDX 23 14 27 15 24 16 26 17 25 18 11 19 12 22 13 23 18 24 14 25
REMARK SMILES IDX 17 26 15 27 16 28 19 29 21 30 20 31
REMARK H PARENT 11 20 11 21
REMARK Flexibility Score: inf
ROOT
ATOM      1  N1  MOL     1       0.716   1.048   2.645  1.00  0.00    -0.238 N 
ATOM      2  N2  MOL     1      -0.550   1.247   2.225  1.00  0.00    -0.066 NA
ATOM      3  N3  MOL     1      -0.682   0.676   1.039  1.00  0.00    -0.129 NA
ATOM      4  C5  MOL     1       1.396   0.259   1.756  1.00  0.00     0.142 A 
ATOM      5  C6  MOL     1       0.507   0.072   0.722  1.00  0.00     0.140 A 
ENDROOT
BRANCH   1   6
ATOM      6  C2  MOL     1       1.151   1.586   3.929  1.00  0.00     0.215 C 
ATOM      7  C1  MOL     1       1.382   0.471   4.944  1.00  0.00     0.046 C 
BRANCH   6   8
ATOM      8  C3  MOL     1       2.391   2.443   3.777  1.00  0.00     0.330 C 
ATOM      9  O2  MOL     1       3.139   2.447   2.808  1.00  0.00    -0.250 OA
BRANCH   8  10
ATOM     10  O1  MOL     1       2.574   3.200   4.898  1.00  0.00    -0.467 OA
ATOM     11  C4  MOL     1       3.725   4.048   4.859  1.00  0.00     0.282 C 
ENDBRANCH   8  10
ENDBRANCH   6   8
ENDBRANCH   1   6
BRANCH   5  12
ATOM     12  C7  MOL     1       0.646  -0.653  -0.579  1.00  0.00     0.239 C 
BRANCH  12  13
ATOM     13  C8  MOL     1       1.383   0.201  -1.646  1.00  0.00     0.054 C 
ATOM     14  C9  MOL     1       1.843  -0.655  -2.842  1.00  0.00     0.010 C 
ATOM     15  C13 MOL     1       0.577   1.418  -2.143  1.00  0.00     0.010 C 
ATOM     16  C10 MOL     1       2.631   0.171  -3.857  1.00  0.00     0.001 C 
ATOM     17  C12 MOL     1       1.368   2.239  -3.161  1.00  0.00     0.001 C 
ATOM     18  C11 MOL     1       1.838   1.383  -4.332  1.00  0.00     0.000 C 
ENDBRANCH  12  13
BRANCH  12  19
ATOM     19  N4  MOL     1      -0.705  -1.078  -1.088  1.00  0.00    -0.335 N 
ATOM     20  H21 MOL     1      -1.339  -0.278  -0.942  1.00  0.00     0.347 HD
ATOM     21  H22 MOL     1      -0.701  -1.259  -2.096  1.00  0.00     0.347 HD
BRANCH  19  22
ATOM     22  C14 MOL     1      -1.307  -2.246  -0.388  1.00  0.00     0.298 C 
BRANCH  22  23
ATOM     23  C15 MOL     1      -2.667  -2.550  -0.950  1.00  0.00     0.010 A 
ATOM     24  C16 MOL     1      -3.789  -1.836  -0.493  1.00  0.00     0.060 A 
ATOM     25  C21 MOL     1      -2.822  -3.514  -1.973  1.00  0.00     0.013 A 
ATOM     26  C17 MOL     1      -5.013  -2.117  -1.063  1.00  0.00     0.166 A 
ATOM     27  C20 MOL     1      -4.080  -3.775  -2.529  1.00  0.00     0.051 A 
ATOM     28  C18 MOL     1      -5.155  -3.059  -2.051  1.00  0.00     0.165 A 
ATOM     29  O4  MOL     1      -6.190  -1.522  -0.740  1.00  0.00    -0.454 OA
ATOM     30  O3  MOL     1      -6.441  -3.179  -2.472  1.00  0.00    -0.454 OA
ATOM     31  C19 MOL     1      -7.099  -2.209  -1.629  1.00  0.00     0.468 C 
ENDBRANCH  22  23
ENDBRANCH  19  22
ENDBRANCH  12  19
ENDBRANCH   5  12
TORSDOF 8
