REMARK SMILES COC(=O)[C@H](c1ccccc1)n1cc([C@@H]([NH2+]Cc2ccc3c(c2)OCO3)C2CCCCC2)nn1
REMARK SMILES IDX 12 1 34 2 33 3 13 4 14 5 5 6 3 7 4 8 2 9 1 10 6 11 7 12
REMARK SMILES IDX 11 13 8 14 10 15 9 16 15 17 27 18 28 19 32 20 29 21 31 22
REMARK SMILES IDX 30 23 16 24 17 27 18 28 23 29 19 30 22 31 20 32 21 33 24 34
REMARK SMILES IDX 26 35 25 36
REMARK H PARENT 16 25 16 26
REMARK Flexibility Score: inf
ROOT
ATOM      1  N1  MOL     1      -1.776  -1.827   0.657  1.00  0.00    -0.233 N 
ATOM      2  N2  MOL     1      -2.574  -1.556  -0.400  1.00  0.00    -0.066 NA
ATOM      3  N3  MOL     1      -2.076  -0.505  -1.030  1.00  0.00    -0.129 NA
ATOM      4  C10 MOL     1      -0.712  -0.963   0.683  1.00  0.00     0.142 A 
ATOM      5  C11 MOL     1      -0.935  -0.114  -0.376  1.00  0.00     0.140 A 
ENDROOT
BRANCH   1   6
ATOM      6  C3  MOL     1      -2.076  -2.964   1.531  1.00  0.00     0.249 C 
BRANCH   6   7
ATOM      7  C1  MOL     1      -2.338  -2.498   2.951  1.00  0.00     0.335 C 
ATOM      8  O1  MOL     1      -1.846  -1.502   3.468  1.00  0.00    -0.249 OA
BRANCH   7   9
ATOM      9  O2  MOL     1      -3.168  -3.372   3.591  1.00  0.00    -0.467 OA
ATOM     10  C2  MOL     1      -3.478  -3.033   4.947  1.00  0.00     0.282 C 
ENDBRANCH   7   9
ENDBRANCH   6   7
BRANCH   6  11
ATOM     11  C4  MOL     1      -0.991  -4.024   1.399  1.00  0.00    -0.012 A 
ATOM     12  C5  MOL     1       0.122  -4.072   2.257  1.00  0.00     0.006 A 
ATOM     13  C9  MOL     1      -1.074  -4.964   0.355  1.00  0.00     0.006 A 
ATOM     14  C6  MOL     1       1.112  -5.042   2.082  1.00  0.00     0.000 A 
ATOM     15  C8  MOL     1      -0.082  -5.931   0.186  1.00  0.00     0.000 A 
ATOM     16  C7  MOL     1       1.009  -5.970   1.050  1.00  0.00     0.000 A 
ENDBRANCH   6  11
ENDBRANCH   1   6
BRANCH   5  17
ATOM     17  C12 MOL     1      -0.147   1.041  -0.904  1.00  0.00     0.239 C 
BRANCH  17  18
ATOM     18  C13 MOL     1      -0.519   2.410  -0.272  1.00  0.00     0.054 C 
ATOM     19  C14 MOL     1      -1.995   2.816  -0.455  1.00  0.00     0.010 C 
ATOM     20  C18 MOL     1      -0.130   2.473   1.217  1.00  0.00     0.010 C 
ATOM     21  C15 MOL     1      -2.280   4.187   0.158  1.00  0.00     0.001 C 
ATOM     22  C17 MOL     1      -0.421   3.845   1.822  1.00  0.00     0.001 C 
ATOM     23  C16 MOL     1      -1.879   4.243   1.628  1.00  0.00     0.000 C 
ENDBRANCH  17  18
BRANCH  17  24
ATOM     24  N4  MOL     1      -0.345   1.141  -2.404  1.00  0.00    -0.335 N 
ATOM     25  H23 MOL     1      -0.118   2.084  -2.739  1.00  0.00     0.347 HD
ATOM     26  H24 MOL     1      -1.354   0.994  -2.561  1.00  0.00     0.347 HD
BRANCH  24  27
ATOM     27  C19 MOL     1       0.382   0.133  -3.230  1.00  0.00     0.298 C 
BRANCH  27  28
ATOM     28  C20 MOL     1       1.840   0.469  -3.384  1.00  0.00     0.010 A 
ATOM     29  C21 MOL     1       2.806  -0.173  -2.592  1.00  0.00     0.060 A 
ATOM     30  C26 MOL     1       2.246   1.468  -4.301  1.00  0.00     0.013 A 
ATOM     31  C22 MOL     1       4.123   0.210  -2.734  1.00  0.00     0.166 A 
ATOM     32  C25 MOL     1       3.591   1.830  -4.423  1.00  0.00     0.051 A 
ATOM     33  C23 MOL     1       4.505   1.182  -3.622  1.00  0.00     0.165 A 
ATOM     34  O4  MOL     1       5.174  -0.296  -2.035  1.00  0.00    -0.454 OA
ATOM     35  O3  MOL     1       5.843   1.411  -3.598  1.00  0.00    -0.454 OA
ATOM     36  C24 MOL     1       6.271   0.446  -2.615  1.00  0.00     0.468 C 
ENDBRANCH  27  28
ENDBRANCH  24  27
ENDBRANCH  17  24
ENDBRANCH   5  17
TORSDOF 9
