REMARK SMILES NC(=[NH2+])NCCC[C@H](C(=O)[O-])n1cc([C@@H]([NH2+]Cc2ccn3nccc3n2)C2CCCC2)nn1
REMARK SMILES IDX 12 1 13 2 14 3 32 4 33 5 8 6 9 7 11 8 10 9 7 10 6 11 5 12
REMARK SMILES IDX 4 13 2 14 1 16 3 17 15 22 16 23 17 26 18 27 26 28 19 29
REMARK SMILES IDX 25 30 20 31 24 32 21 33 23 34 22 35 27 36 28 37 31 38 29 39
REMARK SMILES IDX 30 40
REMARK H PARENT 4 15 1 18 1 19 3 20 3 21 16 24 16 25
REMARK Flexibility Score: inf
ROOT
ATOM      1  N4  MOL     1       0.575  -0.927   1.927  1.00  0.00    -0.243 N 
ATOM      2  C7  MOL     1       0.676  -1.645   0.765  1.00  0.00     0.141 A 
ATOM      3  C8  MOL     1       1.434  -0.823  -0.042  1.00  0.00     0.140 A 
ATOM      4  N9  MOL     1       1.967   0.184   0.713  1.00  0.00    -0.129 NA
ATOM      5  N10 MOL     1       1.464   0.087   1.936  1.00  0.00    -0.066 NA
ENDROOT
BRANCH   1   6
ATOM      6  C2  MOL     1      -0.470  -0.999   2.938  1.00  0.00     0.155 C 
BRANCH   6   7
ATOM      7  C1  MOL     1      -1.723  -0.342   2.319  1.00  0.00     0.066 C 
ATOM      8  O1  MOL     1      -2.423   0.332   3.152  1.00  0.00    -0.548 OA
ATOM      9  O2  MOL     1      -1.966  -0.525   1.093  1.00  0.00    -0.548 OA
ENDBRANCH   6   7
BRANCH   6  10
ATOM     10  C3  MOL     1      -0.661  -2.419   3.494  1.00  0.00     0.037 C 
BRANCH  10  11
ATOM     11  C4  MOL     1      -1.736  -2.625   4.579  1.00  0.00     0.040 C 
BRANCH  11  12
ATOM     12  C5  MOL     1      -1.641  -1.700   5.801  1.00  0.00     0.197 C 
BRANCH  12  13
ATOM     13  N1  MOL     1      -2.124  -0.369   5.457  1.00  0.00    -0.278 N 
ATOM     14  C6  MOL     1      -1.825   0.802   6.001  1.00  0.00     0.338 C 
ATOM     15  H8  MOL     1      -2.614  -0.245   4.551  1.00  0.00     0.260 HD
ATOM     16  N2  MOL     1      -2.108   1.904   5.310  1.00  0.00    -0.291 N 
ATOM     17  N3  MOL     1      -1.241   0.901   7.195  1.00  0.00    -0.291 N 
ATOM     18  H9  MOL     1      -2.418   1.752   4.336  1.00  0.00     0.256 HD
ATOM     19  H10 MOL     1      -1.909   2.841   5.618  1.00  0.00     0.256 HD
ATOM     20  H11 MOL     1      -1.080   0.074   7.749  1.00  0.00     0.256 HD
ATOM     21  H12 MOL     1      -1.010   1.802   7.589  1.00  0.00     0.256 HD
ENDBRANCH  12  13
ENDBRANCH  11  12
ENDBRANCH  10  11
ENDBRANCH   6  10
ENDBRANCH   1   6
BRANCH   3  22
ATOM     22  C9  MOL     1       1.443  -0.760  -1.533  1.00  0.00     0.239 C 
BRANCH  22  23
ATOM     23  N5  MOL     1       0.597   0.396  -1.979  1.00  0.00    -0.333 N 
ATOM     24  H15 MOL     1       1.008   1.269  -1.630  1.00  0.00     0.347 HD
ATOM     25  H16 MOL     1       0.550   0.498  -3.005  1.00  0.00     0.347 HD
BRANCH  23  26
ATOM     26  C10 MOL     1      -0.839   0.374  -1.486  1.00  0.00     0.318 C 
BRANCH  26  27
ATOM     27  C11 MOL     1      -1.736   1.084  -2.488  1.00  0.00     0.099 A 
ATOM     28  N6  MOL     1      -1.168   1.526  -3.582  1.00  0.00    -0.228 NA
ATOM     29  C16 MOL     1      -3.188   1.197  -2.147  1.00  0.00     0.050 A 
ATOM     30  C12 MOL     1      -2.003   2.139  -4.478  1.00  0.00     0.155 A 
ATOM     31  C15 MOL     1      -3.948   1.799  -3.074  1.00  0.00     0.117 A 
ATOM     32  C13 MOL     1      -1.763   2.724  -5.701  1.00  0.00     0.071 A 
ATOM     33  N8  MOL     1      -3.380   2.280  -4.249  1.00  0.00    -0.223 N 
ATOM     34  C14 MOL     1      -3.018   3.173  -6.142  1.00  0.00     0.138 A 
ATOM     35  N7  MOL     1      -3.996   2.904  -5.277  1.00  0.00    -0.175 NA
ENDBRANCH  26  27
ENDBRANCH  23  26
ENDBRANCH  22  23
BRANCH  22  36
ATOM     36  C17 MOL     1       2.854  -0.696  -2.145  1.00  0.00     0.054 C 
ATOM     37  C18 MOL     1       2.882  -0.966  -3.657  1.00  0.00     0.010 C 
ATOM     38  C21 MOL     1       3.616   0.626  -2.027  1.00  0.00     0.010 C 
ATOM     39  C19 MOL     1       4.186  -0.351  -4.167  1.00  0.00     0.001 C 
ATOM     40  C20 MOL     1       4.773   0.435  -2.999  1.00  0.00     0.001 C 
ENDBRANCH  22  36
ENDBRANCH   3  22
TORSDOF 11
