REMARK SMILES c1ccc(Cn2cc([C@@H]([NH2+]Cc3ccn4nccc4n3)C3CCCC3)nn2)cc1
REMARK SMILES IDX 9 1 8 2 7 3 26 4 6 5 27 6 5 7 4 8 3 9 28 10 2 11 29 12 1 13
REMARK SMILES IDX 10 14 11 17 12 18 20 19 13 20 19 21 14 22 18 23 15 24 17 25
REMARK SMILES IDX 16 26 21 27 22 28 25 29 23 30 24 31
REMARK H PARENT 10 15 10 16
REMARK Flexibility Score: inf
ROOT
ATOM      1  C2  MOL     1      -0.358  -1.953  -1.171  1.00  0.00     0.239 C 
ENDROOT
BRANCH   1   2
ATOM      2  C1  MOL     1      -1.452  -0.932  -1.212  1.00  0.00     0.140 A 
ATOM      3  C15 MOL     1      -1.426   0.415  -1.494  1.00  0.00     0.141 A 
ATOM      4  N7  MOL     1      -2.732  -1.296  -0.876  1.00  0.00    -0.129 NA
ATOM      5  N5  MOL     1      -2.722   0.818  -1.310  1.00  0.00    -0.248 N 
ATOM      6  N6  MOL     1      -3.495  -0.217  -0.929  1.00  0.00    -0.067 NA
BRANCH   5   7
ATOM      7  C16 MOL     1      -3.288   2.147  -1.480  1.00  0.00     0.181 C 
BRANCH   7   8
ATOM      8  C17 MOL     1      -2.700   3.122  -0.490  1.00  0.00    -0.026 A 
ATOM      9  C18 MOL     1      -3.034   3.043   0.871  1.00  0.00     0.005 A 
ATOM     10  C22 MOL     1      -1.807   4.118  -0.914  1.00  0.00     0.005 A 
ATOM     11  C19 MOL     1      -2.482   3.938   1.788  1.00  0.00     0.000 A 
ATOM     12  C21 MOL     1      -1.258   5.012   0.006  1.00  0.00     0.000 A 
ATOM     13  C20 MOL     1      -1.594   4.921   1.355  1.00  0.00     0.000 A 
ENDBRANCH   7   8
ENDBRANCH   5   7
ENDBRANCH   1   2
BRANCH   1  14
ATOM     14  N1  MOL     1      -0.692  -3.009  -0.140  1.00  0.00    -0.333 N 
ATOM     15  H2  MOL     1      -0.024  -3.788  -0.222  1.00  0.00     0.347 HD
ATOM     16  H3  MOL     1      -1.638  -3.357  -0.344  1.00  0.00     0.347 HD
BRANCH  14  17
ATOM     17  C3  MOL     1      -0.620  -2.562   1.298  1.00  0.00     0.318 C 
BRANCH  17  18
ATOM     18  C4  MOL     1       0.827  -2.554   1.782  1.00  0.00     0.099 A 
ATOM     19  N2  MOL     1       1.703  -3.176   1.040  1.00  0.00    -0.228 NA
ATOM     20  C9  MOL     1       1.120  -1.853   3.073  1.00  0.00     0.050 A 
ATOM     21  C5  MOL     1       2.995  -3.159   1.492  1.00  0.00     0.155 A 
ATOM     22  C8  MOL     1       2.405  -1.871   3.454  1.00  0.00     0.117 A 
ATOM     23  C6  MOL     1       4.152  -3.709   0.989  1.00  0.00     0.071 A 
ATOM     24  N4  MOL     1       3.364  -2.512   2.679  1.00  0.00    -0.223 N 
ATOM     25  C7  MOL     1       5.156  -3.340   1.897  1.00  0.00     0.138 A 
ATOM     26  N3  MOL     1       4.689  -2.613   2.912  1.00  0.00    -0.175 NA
ENDBRANCH  17  18
ENDBRANCH  14  17
ENDBRANCH   1  14
BRANCH   1  27
ATOM     27  C10 MOL     1      -0.165  -2.648  -2.534  1.00  0.00     0.054 C 
ATOM     28  C11 MOL     1       0.960  -3.688  -2.562  1.00  0.00     0.010 C 
ATOM     29  C14 MOL     1       0.275  -1.693  -3.650  1.00  0.00     0.010 C 
ATOM     30  C12 MOL     1       1.299  -3.865  -4.040  1.00  0.00     0.001 C 
ATOM     31  C13 MOL     1       0.781  -2.617  -4.749  1.00  0.00     0.001 C 
ENDBRANCH   1  27
TORSDOF 7
