REMARK SMILES O=c1cc(-c2ccccc2)oc2ccc(-n3cc([C@@H]([NH2+]Cc4ccn5nccc5n4)C4CCCC4)nn3)cc12
REMARK SMILES IDX 19 1 18 2 16 3 17 4 37 5 36 6 15 7 1 8 2 9 3 10 39 11 4 12
REMARK SMILES IDX 12 13 38 14 11 15 13 16 14 17 5 18 6 19 10 20 7 21 9 22 8 23
REMARK SMILES IDX 20 24 21 27 22 28 30 29 23 30 29 31 24 32 28 33 25 34 27 35
REMARK SMILES IDX 26 36 31 37 32 38 35 39 33 40 34 41
REMARK H PARENT 20 25 20 26
REMARK Flexibility Score: inf
ROOT
ATOM      1  C18 MOL     1      -2.620  -0.012   0.172  1.00  0.00     0.239 C 
ENDROOT
BRANCH   1   2
ATOM      2  C17 MOL     1      -1.228   0.059   0.717  1.00  0.00     0.140 A 
ATOM      3  N1  MOL     1       0.923   0.215   1.100  1.00  0.00    -0.220 N 
ATOM      4  C16 MOL     1      -0.024   0.320   0.101  1.00  0.00     0.147 A 
ATOM      5  N7  MOL     1       0.302  -0.140   2.254  1.00  0.00    -0.062 NA
ATOM      6  N6  MOL     1      -0.999  -0.230   2.033  1.00  0.00    -0.129 NA
BRANCH   3   7
ATOM      7  C15 MOL     1       2.327   0.399   1.026  1.00  0.00     0.067 A 
ATOM      8  O1  MOL     1       4.373   1.336  -2.543  1.00  0.00    -0.289 OA
ATOM      9  C1  MOL     1       5.003   1.216  -1.500  1.00  0.00     0.193 A 
ATOM     10  C2  MOL     1       6.464   1.378  -1.454  1.00  0.00     0.100 A 
ATOM     11  C11 MOL     1       4.335   0.894  -0.233  1.00  0.00     0.067 A 
ATOM     12  C3  MOL     1       7.100   1.233  -0.282  1.00  0.00     0.138 A 
ATOM     13  C10 MOL     1       5.110   0.754   0.912  1.00  0.00     0.138 A 
ATOM     14  C12 MOL     1       2.944   0.725  -0.188  1.00  0.00     0.044 A 
ATOM     15  O2  MOL     1       6.470   0.918   0.913  1.00  0.00    -0.456 OA
ATOM     16  C13 MOL     1       4.499   0.429   2.122  1.00  0.00     0.050 A 
ATOM     17  C14 MOL     1       3.112   0.249   2.182  1.00  0.00     0.032 A 
BRANCH  12  18
ATOM     18  C4  MOL     1       8.566   1.375  -0.174  1.00  0.00     0.017 A 
ATOM     19  C5  MOL     1       9.301   0.475   0.612  1.00  0.00     0.012 A 
ATOM     20  C9  MOL     1       9.253   2.411  -0.825  1.00  0.00     0.012 A 
ATOM     21  C6  MOL     1      10.688   0.596   0.729  1.00  0.00     0.001 A 
ATOM     22  C8  MOL     1      10.640   2.532  -0.706  1.00  0.00     0.001 A 
ATOM     23  C7  MOL     1      11.357   1.623   0.068  1.00  0.00     0.000 A 
ENDBRANCH  12  18
ENDBRANCH   3   7
ENDBRANCH   1   2
BRANCH   1  24
ATOM     24  N2  MOL     1      -3.421  -1.040   0.940  1.00  0.00    -0.333 N 
ATOM     25  H12 MOL     1      -4.417  -0.927   0.698  1.00  0.00     0.347 HD
ATOM     26  H13 MOL     1      -3.306  -0.851   1.944  1.00  0.00     0.347 HD
BRANCH  24  27
ATOM     27  C19 MOL     1      -3.088  -2.479   0.649  1.00  0.00     0.318 C 
BRANCH  27  28
ATOM     28  C20 MOL     1      -3.740  -2.919  -0.658  1.00  0.00     0.099 A 
ATOM     29  N3  MOL     1      -4.696  -2.159  -1.124  1.00  0.00    -0.228 NA
ATOM     30  C25 MOL     1      -3.243  -4.180  -1.293  1.00  0.00     0.050 A 
ATOM     31  C21 MOL     1      -5.266  -2.563  -2.301  1.00  0.00     0.155 A 
ATOM     32  C24 MOL     1      -3.843  -4.517  -2.443  1.00  0.00     0.117 A 
ATOM     33  C22 MOL     1      -6.270  -2.021  -3.069  1.00  0.00     0.071 A 
ATOM     34  N5  MOL     1      -4.857  -3.725  -2.971  1.00  0.00    -0.223 N 
ATOM     35  C23 MOL     1      -6.403  -2.891  -4.163  1.00  0.00     0.138 A 
ATOM     36  N4  MOL     1      -5.552  -3.915  -4.111  1.00  0.00    -0.175 NA
ENDBRANCH  27  28
ENDBRANCH  24  27
ENDBRANCH   1  24
BRANCH   1  37
ATOM     37  C26 MOL     1      -3.402   1.314   0.214  1.00  0.00     0.054 C 
ATOM     38  C27 MOL     1      -2.777   2.464  -0.577  1.00  0.00     0.010 C 
ATOM     39  C30 MOL     1      -3.603   1.946   1.594  1.00  0.00     0.010 C 
ATOM     40  C28 MOL     1      -3.575   3.683  -0.129  1.00  0.00     0.001 C 
ATOM     41  C29 MOL     1      -4.051   3.375   1.291  1.00  0.00     0.001 C 
ENDBRANCH   1  37
TORSDOF 7
