REMARK SMILES CC(=O)Nc1ccc(S(=O)(=O)n2cc([C@@H]([NH2+]Cc3ccn4nccc4n3)C3CCCC3)nn2)cc1
REMARK SMILES IDX 12 1 13 2 14 3 32 4 33 5 9 6 10 7 11 8 8 9 7 10 34 11 6 12
REMARK SMILES IDX 35 13 5 14 4 15 2 16 1 18 3 19 15 20 16 21 17 24 18 25 26 26
REMARK SMILES IDX 19 27 25 28 20 29 24 30 21 31 23 32 22 33 27 34 28 35 31 36
REMARK SMILES IDX 29 37 30 38
REMARK H PARENT 4 17 16 22 16 23
REMARK Flexibility Score: inf
ROOT
ATOM      1  N1  MOL     1       1.034   3.620  -0.573  1.00  0.00    -0.140 N 
ATOM      2  C1  MOL     1       1.365   2.660   0.369  1.00  0.00     0.160 A 
ATOM      3  C2  MOL     1       1.893   1.623  -0.366  1.00  0.00     0.141 A 
ATOM      4  N6  MOL     1       1.896   1.969  -1.694  1.00  0.00    -0.128 NA
ATOM      5  N7  MOL     1       1.344   3.166  -1.815  1.00  0.00    -0.051 NA
ENDROOT
BRANCH   1   6
ATOM      6  S1  MOL     1      -0.161   4.827  -0.255  1.00  0.00     0.284 S 
ATOM      7  O1  MOL     1      -0.141   5.023   1.182  1.00  0.00    -0.199 OA
ATOM      8  O3  MOL     1       0.087   5.886  -1.210  1.00  0.00    -0.199 OA
BRANCH   6   9
ATOM      9  C16 MOL     1      -1.636   3.946  -0.692  1.00  0.00     0.089 A 
ATOM     10  C17 MOL     1      -2.263   4.185  -1.914  1.00  0.00     0.024 A 
ATOM     11  C23 MOL     1      -2.105   2.950   0.169  1.00  0.00     0.024 A 
ATOM     12  C18 MOL     1      -3.338   3.378  -2.300  1.00  0.00     0.027 A 
ATOM     13  C22 MOL     1      -3.156   2.131  -0.238  1.00  0.00     0.027 A 
ATOM     14  C19 MOL     1      -3.759   2.319  -1.486  1.00  0.00     0.041 A 
BRANCH  14  15
ATOM     15  N8  MOL     1      -4.798   1.493  -1.953  1.00  0.00    -0.326 N 
ATOM     16  C20 MOL     1      -5.052   0.204  -1.520  1.00  0.00     0.221 C 
ATOM     17  H22 MOL     1      -5.307   1.812  -2.770  1.00  0.00     0.169 HD
ATOM     18  C21 MOL     1      -6.323  -0.369  -2.092  1.00  0.00     0.114 C 
ATOM     19  O2  MOL     1      -4.314  -0.465  -0.801  1.00  0.00    -0.275 OA
ENDBRANCH  14  15
ENDBRANCH   6   9
ENDBRANCH   1   6
BRANCH   3  20
ATOM     20  C3  MOL     1       2.316   0.244   0.041  1.00  0.00     0.239 C 
BRANCH  20  21
ATOM     21  N2  MOL     1       1.812  -0.748  -0.981  1.00  0.00    -0.333 N 
ATOM     22  H3  MOL     1       2.238  -1.671  -0.794  1.00  0.00     0.347 HD
ATOM     23  H4  MOL     1       2.119  -0.439  -1.913  1.00  0.00     0.347 HD
BRANCH  21  24
ATOM     24  C4  MOL     1       0.322  -1.002  -0.984  1.00  0.00     0.318 C 
BRANCH  24  25
ATOM     25  C5  MOL     1      -0.019  -2.102   0.015  1.00  0.00     0.099 A 
ATOM     26  N3  MOL     1       0.988  -2.779   0.501  1.00  0.00    -0.228 NA
ATOM     27  C10 MOL     1      -1.461  -2.334   0.334  1.00  0.00     0.050 A 
ATOM     28  C6  MOL     1       0.669  -3.785   1.375  1.00  0.00     0.155 A 
ATOM     29  C9  MOL     1      -1.704  -3.333   1.192  1.00  0.00     0.117 A 
ATOM     30  C7  MOL     1       1.449  -4.691   2.059  1.00  0.00     0.071 A 
ATOM     31  N5  MOL     1      -0.657  -4.076   1.728  1.00  0.00    -0.223 N 
ATOM     32  C8  MOL     1       0.542  -5.474   2.790  1.00  0.00     0.138 A 
ATOM     33  N4  MOL     1      -0.726  -5.104   2.599  1.00  0.00    -0.175 NA
ENDBRANCH  24  25
ENDBRANCH  21  24
ENDBRANCH  20  21
BRANCH  20  34
ATOM     34  C11 MOL     1       3.846   0.110   0.141  1.00  0.00     0.054 C 
ATOM     35  C12 MOL     1       4.324  -1.260   0.636  1.00  0.00     0.010 C 
ATOM     36  C15 MOL     1       4.480   1.049   1.173  1.00  0.00     0.010 C 
ATOM     37  C13 MOL     1       5.738  -1.026   1.165  1.00  0.00     0.001 C 
ATOM     38  C14 MOL     1       5.879   0.481   1.360  1.00  0.00     0.001 C 
ENDBRANCH  20  34
ENDBRANCH   3  20
TORSDOF 8
