REMARK SMILES O=[N+]([O-])c1ccc(-n2cc([C@@H]([NH2+]Cc3ccn4nccc4n3)C3CCCC3)nn2)cc1
REMARK SMILES IDX 11 1 10 2 8 3 9 4 29 5 28 6 7 7 4 8 5 9 31 10 6 11 30 12
REMARK SMILES IDX 2 13 1 14 3 15 12 16 13 19 14 20 22 21 15 22 21 23 16 24
REMARK SMILES IDX 20 25 17 26 19 27 18 28 23 29 24 30 27 31 25 32 26 33
REMARK H PARENT 12 17 12 18
REMARK Flexibility Score: inf
ROOT
ATOM      1  C9  MOL     1      -0.765  -2.281   1.005  1.00  0.00     0.239 C 
ENDROOT
BRANCH   1   2
ATOM      2  C8  MOL     1       0.122  -1.078   1.097  1.00  0.00     0.140 A 
ATOM      3  N2  MOL     1       1.128   0.859   0.893  1.00  0.00    -0.220 N 
ATOM      4  C7  MOL     1       0.441  -0.101   0.176  1.00  0.00     0.147 A 
ATOM      5  N8  MOL     1       1.254   0.436   2.176  1.00  0.00    -0.062 NA
ATOM      6  N7  MOL     1       0.648  -0.732   2.308  1.00  0.00    -0.129 NA
BRANCH   3   7
ATOM      7  C6  MOL     1       1.582   2.136   0.475  1.00  0.00     0.067 A 
ATOM      8  C1  MOL     1       2.416   4.699  -0.286  1.00  0.00     0.269 A 
ATOM      9  C2  MOL     1       1.799   3.859  -1.222  1.00  0.00     0.088 A 
ATOM     10  C4  MOL     1       2.628   4.263   1.026  1.00  0.00     0.088 A 
ATOM     11  C3  MOL     1       1.383   2.577  -0.842  1.00  0.00     0.035 A 
ATOM     12  C5  MOL     1       2.212   2.982   1.404  1.00  0.00     0.035 A 
BRANCH   8  13
ATOM     13  N1  MOL     1       2.839   6.048  -0.685  1.00  0.00     0.062 N 
ATOM     14  O1  MOL     1       2.550   6.422  -1.831  1.00  0.00    -0.258 OA
ATOM     15  O2  MOL     1       3.459   6.726   0.145  1.00  0.00    -0.258 OA
ENDBRANCH   8  13
ENDBRANCH   3   7
ENDBRANCH   1   2
BRANCH   1  16
ATOM     16  N3  MOL     1      -2.215  -1.920   1.255  1.00  0.00    -0.333 N 
ATOM     17  H7  MOL     1      -2.807  -2.755   1.219  1.00  0.00     0.347 HD
ATOM     18  H8  MOL     1      -2.532  -1.289   0.498  1.00  0.00     0.347 HD
BRANCH  16  19
ATOM     19  C10 MOL     1      -2.503  -1.160   2.536  1.00  0.00     0.318 C 
BRANCH  19  20
ATOM     20  C11 MOL     1      -2.407   0.343   2.277  1.00  0.00     0.099 A 
ATOM     21  N4  MOL     1      -2.656   0.734   1.053  1.00  0.00    -0.228 NA
ATOM     22  C16 MOL     1      -2.022   1.231   3.416  1.00  0.00     0.050 A 
ATOM     23  C12 MOL     1      -2.506   2.074   0.812  1.00  0.00     0.155 A 
ATOM     24  C15 MOL     1      -1.872   2.526   3.105  1.00  0.00     0.117 A 
ATOM     25  C13 MOL     1      -2.677   2.827  -0.327  1.00  0.00     0.071 A 
ATOM     26  N6  MOL     1      -2.101   2.974   1.809  1.00  0.00    -0.223 N 
ATOM     27  C14 MOL     1      -2.338   4.137   0.047  1.00  0.00     0.138 A 
ATOM     28  N5  MOL     1      -1.969   4.226   1.325  1.00  0.00    -0.175 NA
ENDBRANCH  19  20
ENDBRANCH  16  19
ENDBRANCH   1  16
BRANCH   1  29
ATOM     29  C17 MOL     1      -0.669  -3.014  -0.347  1.00  0.00     0.054 C 
ATOM     30  C18 MOL     1       0.729  -3.571  -0.636  1.00  0.00     0.010 C 
ATOM     31  C21 MOL     1      -1.531  -4.277  -0.445  1.00  0.00     0.010 C 
ATOM     32  C19 MOL     1       0.501  -4.556  -1.774  1.00  0.00     0.001 C 
ATOM     33  C20 MOL     1      -0.916  -5.091  -1.581  1.00  0.00     0.001 C 
ENDBRANCH   1  29
TORSDOF 7
