REMARK SMILES NC(=[NH2+])NCCC[C@@H](C(=O)COc1c(F)c(F)cc(F)c1F)n1cc([C@@H]([NH2+]Cc2ccn3nccc3n2)C2CCCC2)nn1
REMARK SMILES IDX 23 1 24 2 25 3 43 4 44 5 8 6 9 7 10 8 11 9 12 10 13 11 14 12
REMARK SMILES IDX 21 13 15 14 16 15 19 16 22 17 17 18 18 19 20 20 7 21 6 22
REMARK SMILES IDX 5 23 4 24 2 25 1 27 3 28 26 33 27 34 28 37 29 38 37 39 30 40
REMARK SMILES IDX 36 41 31 42 35 43 32 44 34 45 33 46 38 47 39 48 42 49 40 50
REMARK SMILES IDX 41 51
REMARK H PARENT 4 26 1 29 1 30 3 31 3 32 27 35 27 36
REMARK Flexibility Score: inf
ROOT
ATOM      1  N4  MOL     1      -0.495  -0.532  -0.032  1.00  0.00    -0.241 N 
ATOM      2  C14 MOL     1      -1.199   0.559   0.403  1.00  0.00     0.141 A 
ATOM      3  C15 MOL     1      -1.045   0.553   1.777  1.00  0.00     0.140 A 
ATOM      4  N9  MOL     1      -0.282  -0.539   2.114  1.00  0.00    -0.129 NA
ATOM      5  N10 MOL     1       0.072  -1.165   1.008  1.00  0.00    -0.066 NA
ENDROOT
BRANCH   1   6
ATOM      6  C9  MOL     1      -0.435  -1.096  -1.374  1.00  0.00     0.179 C 
BRANCH   6   7
ATOM      7  C1  MOL     1       0.446  -2.345  -1.439  1.00  0.00     0.194 C 
ATOM      8  O1  MOL     1       1.636  -2.271  -1.775  1.00  0.00    -0.293 OA
BRANCH   7   9
ATOM      9  C2  MOL     1      -0.211  -3.678  -1.083  1.00  0.00     0.307 C 
BRANCH   9  10
ATOM     10  O2  MOL     1       0.743  -4.701  -1.364  1.00  0.00    -0.479 OA
BRANCH  10  11
ATOM     11  C3  MOL     1       0.372  -6.004  -1.170  1.00  0.00     0.197 A 
ATOM     12  C4  MOL     1       1.348  -6.954  -1.499  1.00  0.00     0.203 A 
ATOM     13  C8  MOL     1      -0.851  -6.464  -0.684  1.00  0.00     0.203 A 
ATOM     14  F1  MOL     1       2.543  -6.545  -1.964  1.00  0.00    -0.199 F 
ATOM     15  C5  MOL     1       1.107  -8.318  -1.346  1.00  0.00     0.165 A 
ATOM     16  C7  MOL     1      -1.086  -7.834  -0.534  1.00  0.00     0.165 A 
ATOM     17  F4  MOL     1      -1.829  -5.607  -0.356  1.00  0.00    -0.199 F 
ATOM     18  F2  MOL     1       2.055  -9.207  -1.674  1.00  0.00    -0.203 F 
ATOM     19  C6  MOL     1      -0.112  -8.770  -0.860  1.00  0.00     0.085 A 
ATOM     20  F3  MOL     1      -2.270  -8.255  -0.072  1.00  0.00    -0.203 F 
ENDBRANCH  10  11
ENDBRANCH   9  10
ENDBRANCH   7   9
ENDBRANCH   6   7
BRANCH   6  21
ATOM     21  C10 MOL     1      -0.031  -0.086  -2.476  1.00  0.00     0.039 C 
BRANCH  21  22
ATOM     22  C11 MOL     1       1.278   0.694  -2.236  1.00  0.00     0.040 C 
BRANCH  22  23
ATOM     23  C12 MOL     1       2.291   0.549  -3.382  1.00  0.00     0.197 C 
BRANCH  23  24
ATOM     24  N1  MOL     1       2.857  -0.801  -3.386  1.00  0.00    -0.278 N 
ATOM     25  C13 MOL     1       3.605  -1.361  -4.340  1.00  0.00     0.338 C 
ATOM     26  H11 MOL     1       2.631  -1.428  -2.604  1.00  0.00     0.260 HD
ATOM     27  N2  MOL     1       3.931  -2.652  -4.232  1.00  0.00    -0.291 N 
ATOM     28  N3  MOL     1       4.021  -0.681  -5.410  1.00  0.00    -0.291 N 
ATOM     29  H12 MOL     1       3.612  -3.200  -3.437  1.00  0.00     0.256 HD
ATOM     30  H13 MOL     1       4.479  -3.130  -4.937  1.00  0.00     0.256 HD
ATOM     31  H14 MOL     1       3.838   0.304  -5.516  1.00  0.00     0.256 HD
ATOM     32  H15 MOL     1       4.570  -1.126  -6.136  1.00  0.00     0.256 HD
ENDBRANCH  23  24
ENDBRANCH  22  23
ENDBRANCH  21  22
ENDBRANCH   6  21
ENDBRANCH   1   6
BRANCH   3  33
ATOM     33  C16 MOL     1      -1.512   1.461   2.884  1.00  0.00     0.239 C 
BRANCH  33  34
ATOM     34  N5  MOL     1      -0.398   2.299   3.478  1.00  0.00    -0.333 N 
ATOM     35  H18 MOL     1      -0.755   2.860   4.259  1.00  0.00     0.347 HD
ATOM     36  H19 MOL     1      -0.066   2.972   2.763  1.00  0.00     0.347 HD
BRANCH  34  37
ATOM     37  C17 MOL     1       0.854   1.567   3.913  1.00  0.00     0.318 C 
BRANCH  37  38
ATOM     38  C18 MOL     1       1.873   1.597   2.775  1.00  0.00     0.099 A 
ATOM     39  N6  MOL     1       1.792   2.619   1.961  1.00  0.00    -0.228 NA
ATOM     40  C23 MOL     1       2.859   0.478   2.675  1.00  0.00     0.050 A 
ATOM     41  C19 MOL     1       2.705   2.648   0.944  1.00  0.00     0.155 A 
ATOM     42  C22 MOL     1       3.689   0.542   1.623  1.00  0.00     0.117 A 
ATOM     43  C20 MOL     1       2.979   3.594  -0.016  1.00  0.00     0.071 A 
ATOM     44  N8  MOL     1       3.628   1.614   0.736  1.00  0.00    -0.223 N 
ATOM     45  C21 MOL     1       4.017   3.045  -0.783  1.00  0.00     0.138 A 
ATOM     46  N7  MOL     1       4.354   1.819  -0.389  1.00  0.00    -0.175 NA
ENDBRANCH  37  38
ENDBRANCH  34  37
ENDBRANCH  33  34
BRANCH  33  47
ATOM     47  C24 MOL     1      -2.674   2.423   2.560  1.00  0.00     0.054 C 
ATOM     48  C25 MOL     1      -3.974   1.766   2.082  1.00  0.00     0.010 C 
ATOM     49  C28 MOL     1      -2.384   3.541   1.541  1.00  0.00     0.010 C 
ATOM     50  C26 MOL     1      -4.726   2.929   1.455  1.00  0.00     0.001 C 
ATOM     51  C27 MOL     1      -3.638   3.653   0.674  1.00  0.00     0.001 C 
ENDBRANCH  33  47
ENDBRANCH   3  33
TORSDOF 14
