REMARK SMILES O=C(COc1c(F)c(F)cc(F)c1F)[C@H](Cc1c[nH]c[nH+]1)n1cc([C@@H]([NH2+]Cc2ccn3nccc3n2)C2CCCC2)nn1
REMARK SMILES IDX 22 1 23 2 24 3 42 4 43 5 15 6 2 7 1 8 3 9 4 10 5 11 6 12
REMARK SMILES IDX 13 13 7 14 8 15 11 16 14 17 9 18 10 19 12 20 16 21 17 22
REMARK SMILES IDX 18 23 21 24 19 25 20 26 25 29 26 30 27 33 28 34 36 35 29 36
REMARK SMILES IDX 35 37 30 38 34 39 31 40 33 41 32 42 37 43 38 44 41 45 39 46
REMARK SMILES IDX 40 47
REMARK H PARENT 21 27 19 28 26 31 26 32
REMARK Flexibility Score: inf
ROOT
ATOM      1  N3  MOL     1       0.098   0.222  -0.325  1.00  0.00    -0.241 N 
ATOM      2  C14 MOL     1       1.337   0.496  -0.836  1.00  0.00     0.141 A 
ATOM      3  C15 MOL     1       2.115   0.740   0.281  1.00  0.00     0.140 A 
ATOM      4  N8  MOL     1       1.334   0.604   1.397  1.00  0.00    -0.129 NA
ATOM      5  N9  MOL     1       0.100   0.339   1.012  1.00  0.00    -0.066 NA
ENDROOT
BRANCH   1   6
ATOM      6  C9  MOL     1      -1.166  -0.044  -1.001  1.00  0.00     0.187 C 
BRANCH   6   7
ATOM      7  C1  MOL     1      -1.121  -1.304  -1.852  1.00  0.00     0.195 C 
ATOM      8  O1  MOL     1      -1.688  -1.332  -2.949  1.00  0.00    -0.293 OA
BRANCH   7   9
ATOM      9  C2  MOL     1      -0.406  -2.535  -1.313  1.00  0.00     0.307 C 
BRANCH   9  10
ATOM     10  O2  MOL     1      -0.721  -2.653   0.065  1.00  0.00    -0.479 OA
BRANCH  10  11
ATOM     11  C3  MOL     1      -0.188  -3.711   0.754  1.00  0.00     0.197 A 
ATOM     12  C4  MOL     1       0.694  -4.673   0.259  1.00  0.00     0.203 A 
ATOM     13  C8  MOL     1      -0.578  -3.807   2.094  1.00  0.00     0.203 A 
ATOM     14  F1  MOL     1       1.127  -4.623  -1.009  1.00  0.00    -0.199 F 
ATOM     15  C5  MOL     1       1.159  -5.701   1.082  1.00  0.00     0.165 A 
ATOM     16  C7  MOL     1      -0.107  -4.835   2.909  1.00  0.00     0.165 A 
ATOM     17  F4  MOL     1      -1.416  -2.892   2.605  1.00  0.00    -0.199 F 
ATOM     18  F2  MOL     1       2.011  -6.609   0.590  1.00  0.00    -0.203 F 
ATOM     19  C6  MOL     1       0.764  -5.792   2.410  1.00  0.00     0.085 A 
ATOM     20  F3  MOL     1      -0.489  -4.897   4.191  1.00  0.00    -0.203 F 
ENDBRANCH  10  11
ENDBRANCH   9  10
ENDBRANCH   7   9
ENDBRANCH   6   7
BRANCH   6  21
ATOM     21  C10 MOL     1      -1.607   1.181  -1.819  1.00  0.00     0.119 C 
BRANCH  21  22
ATOM     22  C11 MOL     1      -3.080   1.385  -1.796  1.00  0.00     0.142 A 
ATOM     23  C12 MOL     1      -4.121   0.708  -2.392  1.00  0.00     0.244 A 
ATOM     24  N2  MOL     1      -3.685   2.426  -1.101  1.00  0.00    -0.248 N 
ATOM     25  N1  MOL     1      -5.283   1.343  -2.014  1.00  0.00    -0.250 N 
ATOM     26  C13 MOL     1      -5.014   2.393  -1.235  1.00  0.00     0.399 A 
ATOM     27  H10 MOL     1      -3.193   3.170  -0.584  1.00  0.00     0.311 HD
ATOM     28  H8  MOL     1      -6.223   1.069  -2.299  1.00  0.00     0.311 HD
ENDBRANCH  21  22
ENDBRANCH   6  21
ENDBRANCH   1   6
BRANCH   3  29
ATOM     29  C16 MOL     1       3.551   1.148   0.430  1.00  0.00     0.239 C 
BRANCH  29  30
ATOM     30  N4  MOL     1       3.710   2.602   0.827  1.00  0.00    -0.333 N 
ATOM     31  H13 MOL     1       4.703   2.842   0.933  1.00  0.00     0.347 HD
ATOM     32  H14 MOL     1       3.368   3.177   0.037  1.00  0.00     0.347 HD
BRANCH  30  33
ATOM     33  C17 MOL     1       2.924   3.111   2.021  1.00  0.00     0.318 C 
BRANCH  33  34
ATOM     34  C18 MOL     1       1.554   3.608   1.553  1.00  0.00     0.099 A 
ATOM     35  N5  MOL     1       1.498   4.084   0.336  1.00  0.00    -0.228 NA
ATOM     36  C23 MOL     1       0.392   3.478   2.488  1.00  0.00     0.050 A 
ATOM     37  C19 MOL     1       0.257   4.453  -0.106  1.00  0.00     0.155 A 
ATOM     38  C22 MOL     1      -0.806   3.765   1.955  1.00  0.00     0.117 A 
ATOM     39  C20 MOL     1      -0.159   5.088  -1.252  1.00  0.00     0.071 A 
ATOM     40  N7  MOL     1      -0.901   4.236   0.652  1.00  0.00    -0.223 N 
ATOM     41  C21 MOL     1      -1.560   5.121  -1.164  1.00  0.00     0.138 A 
ATOM     42  N6  MOL     1      -2.027   4.484  -0.082  1.00  0.00    -0.175 NA
ENDBRANCH  33  34
ENDBRANCH  30  33
ENDBRANCH  29  30
BRANCH  29  43
ATOM     43  C24 MOL     1       4.328   0.252   1.415  1.00  0.00     0.054 C 
ATOM     44  C25 MOL     1       4.350  -1.226   1.005  1.00  0.00     0.010 C 
ATOM     45  C28 MOL     1       5.822   0.568   1.519  1.00  0.00     0.010 C 
ATOM     46  C26 MOL     1       5.465  -1.827   1.851  1.00  0.00     0.001 C 
ATOM     47  C27 MOL     1       6.448  -0.689   2.119  1.00  0.00     0.001 C 
ENDBRANCH  29  43
ENDBRANCH   3  29
TORSDOF 12
