REMARK SMILES [NH3+]CCCC[C@@H](C(=O)COc1c(F)c(F)cc(F)c1F)n1cc([C@@H]([NH2+]Cc2ccn3nccc3n2)C2CCCC2)nn1
REMARK SMILES IDX 6 1 7 2 8 3 9 4 10 5 11 6 12 7 19 8 13 9 14 10 17 11 20 12
REMARK SMILES IDX 15 13 16 14 18 15 5 16 4 17 3 18 2 19 1 20 21 24 22 25 42 26
REMARK SMILES IDX 23 27 41 28 24 29 25 30 26 33 27 34 35 35 28 36 34 37 29 38
REMARK SMILES IDX 33 39 30 40 32 41 31 42 36 43 37 44 40 45 38 46 39 47
REMARK H PARENT 1 21 1 22 1 23 25 31 25 32
REMARK Flexibility Score: inf
ROOT
ATOM      1  C9  MOL     1       2.563   2.158  -0.671  1.00  0.00     0.179 C 
ENDROOT
BRANCH   1   2
ATOM      2  C1  MOL     1       2.430   3.469   0.124  1.00  0.00     0.194 C 
ATOM      3  O1  MOL     1       3.082   4.484  -0.181  1.00  0.00    -0.293 OA
BRANCH   2   4
ATOM      4  C2  MOL     1       1.572   3.489   1.387  1.00  0.00     0.307 C 
BRANCH   4   5
ATOM      5  O2  MOL     1       1.771   2.278   2.104  1.00  0.00    -0.479 OA
BRANCH   5   6
ATOM      6  C3  MOL     1       0.912   2.050   3.147  1.00  0.00     0.197 A 
ATOM      7  C4  MOL     1       0.291   3.024   3.933  1.00  0.00     0.203 A 
ATOM      8  C8  MOL     1       0.674   0.708   3.453  1.00  0.00     0.203 A 
ATOM      9  F1  MOL     1       0.476   4.331   3.688  1.00  0.00    -0.199 F 
ATOM     10  C5  MOL     1      -0.543   2.652   4.993  1.00  0.00     0.165 A 
ATOM     11  C7  MOL     1      -0.173   0.346   4.503  1.00  0.00     0.165 A 
ATOM     12  F4  MOL     1       1.232  -0.255   2.701  1.00  0.00    -0.199 F 
ATOM     13  F2  MOL     1      -1.122   3.599   5.737  1.00  0.00    -0.203 F 
ATOM     14  C6  MOL     1      -0.782   1.314   5.287  1.00  0.00     0.085 A 
ATOM     15  F3  MOL     1      -0.419  -0.951   4.738  1.00  0.00    -0.203 F 
ENDBRANCH   5   6
ENDBRANCH   4   5
ENDBRANCH   2   4
ENDBRANCH   1   2
BRANCH   1  16
ATOM     16  C10 MOL     1       2.963   2.298  -2.163  1.00  0.00     0.036 C 
BRANCH  16  17
ATOM     17  C11 MOL     1       4.017   3.340  -2.568  1.00  0.00     0.008 C 
BRANCH  17  18
ATOM     18  C12 MOL     1       5.322   3.301  -1.767  1.00  0.00     0.061 C 
BRANCH  18  19
ATOM     19  C13 MOL     1       6.081   4.631  -1.784  1.00  0.00     0.258 C 
BRANCH  19  20
ATOM     20  N1  MOL     1       5.256   5.709  -1.182  1.00  0.00    -0.358 N 
ATOM     21  H13 MOL     1       4.496   5.330  -0.578  1.00  0.00     0.344 HD
ATOM     22  H14 MOL     1       4.775   6.267  -1.901  1.00  0.00     0.344 HD
ATOM     23  H15 MOL     1       5.813   6.359  -0.614  1.00  0.00     0.344 HD
ENDBRANCH  19  20
ENDBRANCH  18  19
ENDBRANCH  17  18
ENDBRANCH  16  17
ENDBRANCH   1  16
BRANCH   1  24
ATOM     24  N2  MOL     1       1.362   1.323  -0.589  1.00  0.00    -0.241 N 
ATOM     25  C14 MOL     1       1.283  -0.019  -0.348  1.00  0.00     0.141 A 
ATOM     26  N8  MOL     1       0.150   1.828  -0.882  1.00  0.00    -0.066 NA
ATOM     27  C15 MOL     1      -0.053  -0.322  -0.521  1.00  0.00     0.140 A 
ATOM     28  N7  MOL     1      -0.724   0.834  -0.837  1.00  0.00    -0.129 NA
BRANCH  27  29
ATOM     29  C16 MOL     1      -0.786  -1.638  -0.450  1.00  0.00     0.239 C 
BRANCH  29  30
ATOM     30  N3  MOL     1      -2.263  -1.424  -0.635  1.00  0.00    -0.333 N 
ATOM     31  H18 MOL     1      -2.410  -0.750  -1.397  1.00  0.00     0.347 HD
ATOM     32  H19 MOL     1      -2.718  -2.309  -0.915  1.00  0.00     0.347 HD
BRANCH  30  33
ATOM     33  C17 MOL     1      -3.020  -0.975   0.592  1.00  0.00     0.318 C 
BRANCH  33  34
ATOM     34  C18 MOL     1      -3.673  -2.181   1.260  1.00  0.00     0.099 A 
ATOM     35  N4  MOL     1      -3.635  -3.302   0.591  1.00  0.00    -0.228 NA
ATOM     36  C23 MOL     1      -4.316  -1.984   2.595  1.00  0.00     0.050 A 
ATOM     37  C19 MOL     1      -4.248  -4.376   1.179  1.00  0.00     0.155 A 
ATOM     38  C22 MOL     1      -4.896  -3.076   3.115  1.00  0.00     0.117 A 
ATOM     39  C20 MOL     1      -4.421  -5.677   0.761  1.00  0.00     0.071 A 
ATOM     40  N6  MOL     1      -4.876  -4.286   2.429  1.00  0.00    -0.223 N 
ATOM     41  C21 MOL     1      -5.127  -6.300   1.805  1.00  0.00     0.138 A 
ATOM     42  N5  MOL     1      -5.404  -5.467   2.808  1.00  0.00    -0.175 NA
ENDBRANCH  33  34
ENDBRANCH  30  33
ENDBRANCH  29  30
BRANCH  29  43
ATOM     43  C24 MOL     1      -0.236  -2.634  -1.494  1.00  0.00     0.054 C 
ATOM     44  C25 MOL     1      -0.505  -2.296  -2.962  1.00  0.00     0.010 C 
ATOM     45  C28 MOL     1      -0.771  -4.063  -1.398  1.00  0.00     0.010 C 
ATOM     46  C26 MOL     1      -0.165  -3.584  -3.711  1.00  0.00     0.001 C 
ATOM     47  C27 MOL     1      -0.276  -4.715  -2.686  1.00  0.00     0.001 C 
ENDBRANCH  29  43
ENDBRANCH  27  29
ENDBRANCH   1  24
TORSDOF 15
