REMARK SMILES O=C(COc1c(F)c(F)cc(F)c1F)[C@H](Cc1ccccc1)n1cc([C@@H]([NH2+]Cc2ccn3nccc3n2)C2CCCC2)nn1
REMARK SMILES IDX 23 1 24 2 25 3 43 4 44 5 15 6 2 7 1 8 3 9 4 10 5 11 6 12
REMARK SMILES IDX 13 13 7 14 8 15 11 16 14 17 9 18 10 19 12 20 16 21 17 22
REMARK SMILES IDX 18 23 22 24 19 25 21 26 20 27 26 28 27 29 28 32 29 33 37 34
REMARK SMILES IDX 30 35 36 36 31 37 35 38 32 39 34 40 33 41 38 42 39 43 42 44
REMARK SMILES IDX 40 45 41 46
REMARK H PARENT 27 30 27 31
REMARK Flexibility Score: inf
ROOT
ATOM      1  N1  MOL     1       1.152  -1.699   1.567  1.00  0.00    -0.241 N 
ATOM      2  C17 MOL     1       0.032  -1.303   0.885  1.00  0.00     0.141 A 
ATOM      3  C18 MOL     1       0.503  -0.383  -0.022  1.00  0.00     0.140 A 
ATOM      4  N6  MOL     1       1.840  -0.174   0.202  1.00  0.00    -0.129 NA
ATOM      5  N7  MOL     1       2.226  -0.988   1.173  1.00  0.00    -0.066 NA
ENDROOT
BRANCH   1   6
ATOM      6  C9  MOL     1       1.258  -2.785   2.534  1.00  0.00     0.184 C 
BRANCH   6   7
ATOM      7  C1  MOL     1       2.320  -2.511   3.589  1.00  0.00     0.195 C 
ATOM      8  O1  MOL     1       3.221  -3.323   3.827  1.00  0.00    -0.293 OA
BRANCH   7   9
ATOM      9  C2  MOL     1       2.245  -1.219   4.397  1.00  0.00     0.307 C 
BRANCH   9  10
ATOM     10  O2  MOL     1       1.019  -0.517   4.211  1.00  0.00    -0.479 OA
BRANCH  10  11
ATOM     11  C3  MOL     1       1.067   0.810   4.557  1.00  0.00     0.197 A 
ATOM     12  C4  MOL     1       1.776   1.337   5.639  1.00  0.00     0.203 A 
ATOM     13  C8  MOL     1       0.325   1.688   3.765  1.00  0.00     0.203 A 
ATOM     14  F1  MOL     1       2.485   0.538   6.450  1.00  0.00    -0.199 F 
ATOM     15  C5  MOL     1       1.761   2.708   5.896  1.00  0.00     0.165 A 
ATOM     16  C7  MOL     1       0.327   3.058   4.020  1.00  0.00     0.165 A 
ATOM     17  F4  MOL     1      -0.371   1.228   2.712  1.00  0.00    -0.199 F 
ATOM     18  F2  MOL     1       2.465   3.205   6.923  1.00  0.00    -0.203 F 
ATOM     19  C6  MOL     1       1.042   3.580   5.088  1.00  0.00     0.085 A 
ATOM     20  F3  MOL     1      -0.345   3.882   3.203  1.00  0.00    -0.203 F 
ENDBRANCH  10  11
ENDBRANCH   9  10
ENDBRANCH   7   9
ENDBRANCH   6   7
BRANCH   6  21
ATOM     21  C10 MOL     1       1.534  -4.131   1.831  1.00  0.00     0.071 C 
BRANCH  21  22
ATOM     22  C11 MOL     1       0.437  -4.552   0.878  1.00  0.00    -0.045 A 
ATOM     23  C12 MOL     1       0.626  -4.457  -0.510  1.00  0.00     0.004 A 
ATOM     24  C16 MOL     1      -0.791  -5.015   1.368  1.00  0.00     0.004 A 
ATOM     25  C13 MOL     1      -0.403  -4.802  -1.388  1.00  0.00     0.000 A 
ATOM     26  C15 MOL     1      -1.818  -5.359   0.487  1.00  0.00     0.000 A 
ATOM     27  C14 MOL     1      -1.626  -5.248  -0.890  1.00  0.00     0.000 A 
ENDBRANCH  21  22
ENDBRANCH   6  21
ENDBRANCH   1   6
BRANCH   3  28
ATOM     28  C19 MOL     1      -0.194   0.328  -1.138  1.00  0.00     0.239 C 
BRANCH  28  29
ATOM     29  N2  MOL     1       0.430   1.680  -1.357  1.00  0.00    -0.333 N 
ATOM     30  H14 MOL     1       1.452   1.570  -1.316  1.00  0.00     0.347 HD
ATOM     31  H15 MOL     1       0.178   2.030  -2.292  1.00  0.00     0.347 HD
BRANCH  29  32
ATOM     32  C20 MOL     1      -0.018   2.748  -0.394  1.00  0.00     0.318 C 
BRANCH  32  33
ATOM     33  C21 MOL     1      -1.399   3.262  -0.792  1.00  0.00     0.099 A 
ATOM     34  N3  MOL     1      -1.744   3.090  -2.042  1.00  0.00    -0.228 NA
ATOM     35  C26 MOL     1      -2.238   3.915   0.262  1.00  0.00     0.050 A 
ATOM     36  C22 MOL     1      -2.990   3.539  -2.390  1.00  0.00     0.155 A 
ATOM     37  C25 MOL     1      -3.448   4.327  -0.146  1.00  0.00     0.117 A 
ATOM     38  C23 MOL     1      -3.670   3.523  -3.587  1.00  0.00     0.071 A 
ATOM     39  N5  MOL     1      -3.850   4.150  -1.466  1.00  0.00    -0.223 N 
ATOM     40  C24 MOL     1      -4.912   4.118  -3.307  1.00  0.00     0.138 A 
ATOM     41  N4  MOL     1      -5.029   4.491  -2.031  1.00  0.00    -0.175 NA
ENDBRANCH  32  33
ENDBRANCH  29  32
ENDBRANCH  28  29
BRANCH  28  42
ATOM     42  C27 MOL     1      -0.168  -0.523  -2.425  1.00  0.00     0.054 C 
ATOM     43  C28 MOL     1      -0.992   0.018  -3.595  1.00  0.00     0.010 C 
ATOM     44  C31 MOL     1       1.202  -0.739  -3.072  1.00  0.00     0.010 C 
ATOM     45  C29 MOL     1      -0.568  -0.871  -4.758  1.00  0.00     0.001 C 
ATOM     46  C30 MOL     1       0.885  -1.255  -4.476  1.00  0.00     0.001 C 
ENDBRANCH  28  42
ENDBRANCH   3  28
TORSDOF 12
