REMARK SMILES O=C(COc1c(F)c(F)cc(F)c1F)[C@H](CO)n1cc([C@@H]([NH2+]Cc2ccn3nccc3n2)C2CCCC2)nn1
REMARK SMILES IDX 18 1 19 2 20 3 38 4 39 5 15 6 2 7 1 8 3 9 4 10 5 11 6 12
REMARK SMILES IDX 13 13 7 14 8 15 11 16 14 17 9 18 10 19 12 20 16 21 17 22
REMARK SMILES IDX 21 24 22 25 23 28 24 29 32 30 25 31 31 32 26 33 30 34 27 35
REMARK SMILES IDX 29 36 28 37 33 38 34 39 37 40 35 41 36 42
REMARK H PARENT 17 23 22 26 22 27
REMARK Flexibility Score: inf
ROOT
ATOM      1  N1  MOL     1       0.566  -0.724  -2.296  1.00  0.00    -0.239 N 
ATOM      2  C11 MOL     1       0.037  -1.316  -1.179  1.00  0.00     0.142 A 
ATOM      3  C12 MOL     1      -0.909  -0.419  -0.734  1.00  0.00     0.140 A 
ATOM      4  N6  MOL     1      -0.953   0.645  -1.598  1.00  0.00    -0.129 NA
ATOM      5  N7  MOL     1      -0.044   0.453  -2.539  1.00  0.00    -0.066 NA
ENDROOT
BRANCH   1   6
ATOM      6  C9  MOL     1       1.626  -1.224  -3.158  1.00  0.00     0.205 C 
BRANCH   6   7
ATOM      7  C1  MOL     1       2.832  -1.615  -2.318  1.00  0.00     0.197 C 
ATOM      8  O1  MOL     1       2.934  -2.764  -1.869  1.00  0.00    -0.293 OA
BRANCH   7   9
ATOM      9  C2  MOL     1       3.840  -0.547  -1.931  1.00  0.00     0.307 C 
BRANCH   9  10
ATOM     10  O2  MOL     1       3.132   0.391  -1.122  1.00  0.00    -0.479 OA
BRANCH  10  11
ATOM     11  C3  MOL     1       3.875   1.300  -0.420  1.00  0.00     0.197 A 
ATOM     12  C4  MOL     1       5.207   1.647  -0.655  1.00  0.00     0.203 A 
ATOM     13  C8  MOL     1       3.202   1.950   0.619  1.00  0.00     0.203 A 
ATOM     14  F1  MOL     1       5.899   1.083  -1.655  1.00  0.00    -0.199 F 
ATOM     15  C5  MOL     1       5.843   2.603   0.140  1.00  0.00     0.165 A 
ATOM     16  C7  MOL     1       3.842   2.906   1.405  1.00  0.00     0.165 A 
ATOM     17  F4  MOL     1       1.919   1.645   0.881  1.00  0.00    -0.199 F 
ATOM     18  F2  MOL     1       7.123   2.915  -0.094  1.00  0.00    -0.203 F 
ATOM     19  C6  MOL     1       5.168   3.241   1.175  1.00  0.00     0.085 A 
ATOM     20  F3  MOL     1       3.165   3.510   2.392  1.00  0.00    -0.203 F 
ENDBRANCH  10  11
ENDBRANCH   9  10
ENDBRANCH   7   9
ENDBRANCH   6   7
BRANCH   6  21
ATOM     21  C10 MOL     1       1.987  -0.282  -4.310  1.00  0.00     0.191 C 
BRANCH  21  22
ATOM     22  O3  MOL     1       3.010  -0.864  -5.110  1.00  0.00    -0.394 OA
ATOM     23  H7  MOL     1       3.109  -0.318  -5.914  1.00  0.00     0.210 HD
ENDBRANCH  21  22
ENDBRANCH   6  21
ENDBRANCH   1   6
BRANCH   3  24
ATOM     24  C13 MOL     1      -1.795  -0.443   0.475  1.00  0.00     0.239 C 
BRANCH  24  25
ATOM     25  N2  MOL     1      -2.373   0.926   0.728  1.00  0.00    -0.333 N 
ATOM     26  H10 MOL     1      -2.747   1.283  -0.160  1.00  0.00     0.347 HD
ATOM     27  H11 MOL     1      -3.139   0.860   1.412  1.00  0.00     0.347 HD
BRANCH  25  28
ATOM     28  C14 MOL     1      -1.408   1.938   1.294  1.00  0.00     0.318 C 
BRANCH  28  29
ATOM     29  C15 MOL     1      -1.256   1.747   2.799  1.00  0.00     0.099 A 
ATOM     30  N3  MOL     1      -2.162   1.022   3.398  1.00  0.00    -0.228 NA
ATOM     31  C20 MOL     1      -0.097   2.418   3.467  1.00  0.00     0.050 A 
ATOM     32  C16 MOL     1      -2.015   0.872   4.752  1.00  0.00     0.155 A 
ATOM     33  C19 MOL     1      -0.007   2.226   4.791  1.00  0.00     0.117 A 
ATOM     34  C17 MOL     1      -2.769   0.205   5.691  1.00  0.00     0.071 A 
ATOM     35  N5  MOL     1      -0.953   1.456   5.458  1.00  0.00    -0.223 N 
ATOM     36  C18 MOL     1      -2.105   0.419   6.910  1.00  0.00     0.138 A 
ATOM     37  N4  MOL     1      -1.007   1.163   6.774  1.00  0.00    -0.175 NA
ENDBRANCH  28  29
ENDBRANCH  25  28
ENDBRANCH  24  25
BRANCH  24  38
ATOM     38  C21 MOL     1      -2.911  -1.497   0.336  1.00  0.00     0.054 C 
ATOM     39  C22 MOL     1      -3.745  -1.738   1.597  1.00  0.00     0.010 C 
ATOM     40  C25 MOL     1      -3.992  -1.213  -0.711  1.00  0.00     0.010 C 
ATOM     41  C23 MOL     1      -4.913  -2.582   1.095  1.00  0.00     0.001 C 
ATOM     42  C24 MOL     1      -5.112  -2.194  -0.370  1.00  0.00     0.001 C 
ENDBRANCH  24  38
ENDBRANCH   3  24
TORSDOF 12
