REMARK SMILES CCCC[C@@H](C(=O)COc1c(F)c(F)cc(F)c1F)n1cc([C@@H]([NH2+]Cc2ccn3nccc3n2)C2CCCCC2)nn1
REMARK SMILES IDX 20 1 21 2 22 3 41 4 42 5 5 6 6 7 7 8 8 9 9 10 10 11 11 12
REMARK SMILES IDX 18 13 12 14 13 15 16 16 19 17 14 18 15 19 17 20 4 21 3 22
REMARK SMILES IDX 2 23 1 24 23 25 24 26 25 29 26 30 34 31 27 32 33 33 28 34
REMARK SMILES IDX 32 35 29 36 31 37 30 38 35 39 36 40 40 41 37 42 39 43 38 44
REMARK H PARENT 24 27 24 28
REMARK Flexibility Score: inf
ROOT
ATOM      1  N1  MOL     1       0.316  -1.942  -0.563  1.00  0.00    -0.241 N 
ATOM      2  C14 MOL     1       1.396  -1.130  -0.332  1.00  0.00     0.141 A 
ATOM      3  C15 MOL     1       1.416  -0.985   1.037  1.00  0.00     0.140 A 
ATOM      4  N6  MOL     1       0.419  -1.751   1.584  1.00  0.00    -0.129 NA
ATOM      5  N7  MOL     1      -0.236  -2.340   0.599  1.00  0.00    -0.066 NA
ENDROOT
BRANCH   1   6
ATOM      6  C9  MOL     1      -0.287  -2.262  -1.850  1.00  0.00     0.179 C 
BRANCH   6   7
ATOM      7  C1  MOL     1      -0.680  -0.965  -2.547  1.00  0.00     0.194 C 
ATOM      8  O1  MOL     1       0.015  -0.521  -3.468  1.00  0.00    -0.293 OA
BRANCH   7   9
ATOM      9  C2  MOL     1      -1.908  -0.199  -2.072  1.00  0.00     0.307 C 
BRANCH   9  10
ATOM     10  O2  MOL     1      -1.758   0.111  -0.694  1.00  0.00    -0.479 OA
BRANCH  10  11
ATOM     11  C3  MOL     1      -2.608   1.032  -0.145  1.00  0.00     0.197 A 
ATOM     12  C4  MOL     1      -2.299   1.429   1.160  1.00  0.00     0.203 A 
ATOM     13  C8  MOL     1      -3.727   1.606  -0.752  1.00  0.00     0.203 A 
ATOM     14  F1  MOL     1      -1.243   0.892   1.798  1.00  0.00    -0.199 F 
ATOM     15  C5  MOL     1      -3.052   2.398   1.818  1.00  0.00     0.165 A 
ATOM     16  C7  MOL     1      -4.484   2.570  -0.082  1.00  0.00     0.165 A 
ATOM     17  F4  MOL     1      -4.105   1.244  -1.987  1.00  0.00    -0.199 F 
ATOM     18  F2  MOL     1      -2.698   2.782   3.053  1.00  0.00    -0.203 F 
ATOM     19  C6  MOL     1      -4.150   2.981   1.203  1.00  0.00     0.085 A 
ATOM     20  F3  MOL     1      -5.550   3.114  -0.683  1.00  0.00    -0.203 F 
ENDBRANCH  10  11
ENDBRANCH   9  10
ENDBRANCH   7   9
ENDBRANCH   6   7
BRANCH   6  21
ATOM     21  C10 MOL     1      -1.435  -3.285  -1.785  1.00  0.00     0.035 C 
BRANCH  21  22
ATOM     22  C11 MOL     1      -1.899  -3.730  -3.178  1.00  0.00     0.002 C 
BRANCH  22  23
ATOM     23  C12 MOL     1      -2.944  -4.848  -3.136  1.00  0.00    -0.003 C 
ATOM     24  C13 MOL     1      -4.255  -4.428  -2.490  1.00  0.00     0.004 C 
ENDBRANCH  22  23
ENDBRANCH  21  22
ENDBRANCH   6  21
ENDBRANCH   1   6
BRANCH   3  25
ATOM     25  C16 MOL     1       2.206  -0.062   1.911  1.00  0.00     0.239 C 
BRANCH  25  26
ATOM     26  N2  MOL     1       1.259   0.524   2.935  1.00  0.00    -0.333 N 
ATOM     27  H16 MOL     1       1.054  -0.172   3.658  1.00  0.00     0.347 HD
ATOM     28  H17 MOL     1       0.356   0.614   2.431  1.00  0.00     0.347 HD
BRANCH  26  29
ATOM     29  C17 MOL     1       1.575   1.881   3.485  1.00  0.00     0.318 C 
BRANCH  29  30
ATOM     30  C18 MOL     1       1.008   2.987   2.592  1.00  0.00     0.099 A 
ATOM     31  N3  MOL     1       0.960   2.759   1.307  1.00  0.00    -0.228 NA
ATOM     32  C23 MOL     1       0.527   4.239   3.263  1.00  0.00     0.050 A 
ATOM     33  C19 MOL     1       0.384   3.732   0.537  1.00  0.00     0.155 A 
ATOM     34  C22 MOL     1      -0.048   5.141   2.454  1.00  0.00     0.117 A 
ATOM     35  C20 MOL     1       0.165   3.818  -0.819  1.00  0.00     0.071 A 
ATOM     36  N5  MOL     1      -0.142   4.907   1.088  1.00  0.00    -0.223 N 
ATOM     37  C21 MOL     1      -0.510   5.036  -1.000  1.00  0.00     0.138 A 
ATOM     38  N4  MOL     1      -0.721   5.682   0.147  1.00  0.00    -0.175 NA
ENDBRANCH  29  30
ENDBRANCH  26  29
ENDBRANCH  25  26
BRANCH  25  39
ATOM     39  C24 MOL     1       3.423  -0.716   2.615  1.00  0.00     0.054 C 
ATOM     40  C25 MOL     1       4.507  -1.106   1.589  1.00  0.00     0.010 C 
ATOM     41  C29 MOL     1       3.083  -1.928   3.505  1.00  0.00     0.010 C 
ATOM     42  C26 MOL     1       5.751  -1.676   2.267  1.00  0.00     0.001 C 
ATOM     43  C28 MOL     1       4.331  -2.501   4.178  1.00  0.00     0.001 C 
ATOM     44  C27 MOL     1       5.408  -2.862   3.161  1.00  0.00     0.000 C 
ENDBRANCH  25  39
ENDBRANCH   3  25
TORSDOF 13
