REMARK SMILES CCCC[C@@H](C(=O)COc1c(F)c(F)cc(F)c1F)n1cc([C@@H]([NH2+]Cc2ccn3nccc3n2)C2CCCC2)nn1
REMARK SMILES IDX 20 1 21 2 22 3 40 4 41 5 5 6 6 7 7 8 8 9 9 10 10 11 11 12
REMARK SMILES IDX 18 13 12 14 13 15 16 16 19 17 14 18 15 19 17 20 4 21 3 22
REMARK SMILES IDX 2 23 1 24 23 25 24 26 25 29 26 30 34 31 27 32 33 33 28 34
REMARK SMILES IDX 32 35 29 36 31 37 30 38 35 39 36 40 39 41 37 42 38 43
REMARK H PARENT 24 27 24 28
REMARK Flexibility Score: inf
ROOT
ATOM      1  N1  MOL     1      -1.804  -0.352   1.183  1.00  0.00    -0.241 N 
ATOM      2  C14 MOL     1      -0.870  -1.177   0.617  1.00  0.00     0.141 A 
ATOM      3  C15 MOL     1       0.235  -0.370   0.461  1.00  0.00     0.140 A 
ATOM      4  N6  MOL     1      -0.070   0.896   0.891  1.00  0.00    -0.129 NA
ATOM      5  N7  MOL     1      -1.318   0.894   1.332  1.00  0.00    -0.066 NA
ENDROOT
BRANCH   1   6
ATOM      6  C9  MOL     1      -3.146  -0.709   1.617  1.00  0.00     0.179 C 
BRANCH   6   7
ATOM      7  C1  MOL     1      -4.159   0.375   1.265  1.00  0.00     0.194 C 
ATOM      8  O1  MOL     1      -4.932   0.840   2.110  1.00  0.00    -0.293 OA
BRANCH   7   9
ATOM      9  C2  MOL     1      -4.249   0.869  -0.180  1.00  0.00     0.307 C 
BRANCH   9  10
ATOM     10  O2  MOL     1      -3.485   0.093  -1.101  1.00  0.00    -0.479 OA
BRANCH  10  11
ATOM     11  C3  MOL     1      -3.258   0.706  -2.309  1.00  0.00     0.197 A 
ATOM     12  C4  MOL     1      -4.189   1.477  -3.008  1.00  0.00     0.203 A 
ATOM     13  C8  MOL     1      -2.001   0.516  -2.885  1.00  0.00     0.203 A 
ATOM     14  F1  MOL     1      -5.423   1.665  -2.525  1.00  0.00    -0.199 F 
ATOM     15  C5  MOL     1      -3.854   2.055  -4.235  1.00  0.00     0.165 A 
ATOM     16  C7  MOL     1      -1.668   1.116  -4.098  1.00  0.00     0.165 A 
ATOM     17  F4  MOL     1      -1.062  -0.208  -2.253  1.00  0.00    -0.199 F 
ATOM     18  F2  MOL     1      -4.758   2.788  -4.896  1.00  0.00    -0.203 F 
ATOM     19  C6  MOL     1      -2.591   1.886  -4.786  1.00  0.00     0.085 A 
ATOM     20  F3  MOL     1      -0.425   0.975  -4.580  1.00  0.00    -0.203 F 
ENDBRANCH  10  11
ENDBRANCH   9  10
ENDBRANCH   7   9
ENDBRANCH   6   7
BRANCH   6  21
ATOM     21  C10 MOL     1      -3.183  -1.043   3.125  1.00  0.00     0.035 C 
BRANCH  21  22
ATOM     22  C11 MOL     1      -2.309  -2.244   3.503  1.00  0.00     0.002 C 
BRANCH  22  23
ATOM     23  C12 MOL     1      -2.482  -2.625   4.974  1.00  0.00    -0.003 C 
ATOM     24  C13 MOL     1      -1.592  -3.801   5.349  1.00  0.00     0.004 C 
ENDBRANCH  22  23
ENDBRANCH  21  22
ENDBRANCH   6  21
ENDBRANCH   1   6
BRANCH   3  25
ATOM     25  C16 MOL     1       1.598  -0.676  -0.069  1.00  0.00     0.239 C 
BRANCH  25  26
ATOM     26  N2  MOL     1       2.273   0.568  -0.547  1.00  0.00    -0.333 N 
ATOM     27  H16 MOL     1       3.302   0.503  -0.551  1.00  0.00     0.347 HD
ATOM     28  H17 MOL     1       2.081   1.318   0.136  1.00  0.00     0.347 HD
BRANCH  26  29
ATOM     29  C17 MOL     1       1.859   1.092  -1.894  1.00  0.00     0.318 C 
BRANCH  29  30
ATOM     30  C18 MOL     1       2.846   2.170  -2.336  1.00  0.00     0.099 A 
ATOM     31  N3  MOL     1       3.860   2.394  -1.543  1.00  0.00    -0.228 NA
ATOM     32  C23 MOL     1       2.584   2.866  -3.636  1.00  0.00     0.050 A 
ATOM     33  C19 MOL     1       4.730   3.374  -1.942  1.00  0.00     0.155 A 
ATOM     34  C22 MOL     1       3.481   3.805  -3.971  1.00  0.00     0.117 A 
ATOM     35  C20 MOL     1       5.864   3.892  -1.355  1.00  0.00     0.071 A 
ATOM     36  N5  MOL     1       4.561   4.082  -3.139  1.00  0.00    -0.223 N 
ATOM     37  C21 MOL     1       6.313   4.883  -2.240  1.00  0.00     0.138 A 
ATOM     38  N4  MOL     1       5.539   4.995  -3.321  1.00  0.00    -0.175 NA
ENDBRANCH  29  30
ENDBRANCH  26  29
ENDBRANCH  25  26
BRANCH  25  39
ATOM     39  C24 MOL     1       2.467  -1.382   0.993  1.00  0.00     0.054 C 
ATOM     40  C25 MOL     1       2.836  -0.534   2.219  1.00  0.00     0.010 C 
ATOM     41  C28 MOL     1       3.807  -1.925   0.461  1.00  0.00     0.010 C 
ATOM     42  C26 MOL     1       4.084  -1.216   2.755  1.00  0.00     0.001 C 
ATOM     43  C27 MOL     1       4.865  -1.536   1.491  1.00  0.00     0.001 C 
ENDBRANCH  25  39
ENDBRANCH   3  25
TORSDOF 13
