REMARK SMILES CCCC[C@@H](C(=O)COc1c(F)c(F)cc(F)c1F)n1cc([C@@H]([NH2+]Cc2ccn3nccc3n2)c2ccc(O)c3ccccc23)nn1
REMARK SMILES IDX 20 1 21 2 22 3 46 4 47 5 5 6 6 7 7 8 8 9 9 10 10 11 11 12
REMARK SMILES IDX 18 13 12 14 13 15 16 16 19 17 14 18 15 19 17 20 4 21 3 22
REMARK SMILES IDX 2 23 1 24 23 25 24 26 25 29 26 30 34 31 27 32 33 33 28 34
REMARK SMILES IDX 32 35 29 36 31 37 30 38 35 39 45 40 36 41 44 42 40 43 37 44
REMARK SMILES IDX 43 45 41 46 38 47 42 48 39 49
REMARK H PARENT 24 27 24 28 39 50
REMARK Flexibility Score: inf
ROOT
ATOM      1  N1  MOL     1       0.086  -2.256   0.737  1.00  0.00    -0.241 N 
ATOM      2  C14 MOL     1      -0.834  -1.245   0.670  1.00  0.00     0.142 A 
ATOM      3  C15 MOL     1      -0.518  -0.583  -0.495  1.00  0.00     0.145 A 
ATOM      4  N6  MOL     1       0.516  -1.241  -1.117  1.00  0.00    -0.129 NA
ATOM      5  N7  MOL     1       0.873  -2.262  -0.356  1.00  0.00    -0.066 NA
ENDROOT
BRANCH   1   6
ATOM      6  C9  MOL     1       0.330  -3.151   1.861  1.00  0.00     0.179 C 
BRANCH   6   7
ATOM      7  C1  MOL     1       0.940  -2.361   3.013  1.00  0.00     0.194 C 
ATOM      8  O1  MOL     1       0.332  -2.260   4.084  1.00  0.00    -0.293 OA
BRANCH   7   9
ATOM      9  C2  MOL     1       2.297  -1.692   2.818  1.00  0.00     0.307 C 
BRANCH   9  10
ATOM     10  O2  MOL     1       2.139  -0.570   1.956  1.00  0.00    -0.479 OA
BRANCH  10  11
ATOM     11  C3  MOL     1       3.272   0.074   1.535  1.00  0.00     0.197 A 
ATOM     12  C4  MOL     1       3.083   1.029   0.529  1.00  0.00     0.203 A 
ATOM     13  C8  MOL     1       4.571  -0.121   2.012  1.00  0.00     0.203 A 
ATOM     14  F1  MOL     1       1.854   1.264   0.035  1.00  0.00    -0.199 F 
ATOM     15  C5  MOL     1       4.156   1.749   0.007  1.00  0.00     0.165 A 
ATOM     16  C7  MOL     1       5.638   0.614   1.491  1.00  0.00     0.165 A 
ATOM     17  F4  MOL     1       4.825  -1.009   2.986  1.00  0.00    -0.199 F 
ATOM     18  F2  MOL     1       3.937   2.637  -0.973  1.00  0.00    -0.203 F 
ATOM     19  C6  MOL     1       5.442   1.552   0.484  1.00  0.00     0.085 A 
ATOM     20  F3  MOL     1       6.875   0.416   1.965  1.00  0.00    -0.203 F 
ENDBRANCH  10  11
ENDBRANCH   9  10
ENDBRANCH   7   9
ENDBRANCH   6   7
BRANCH   6  21
ATOM     21  C10 MOL     1       1.141  -4.409   1.504  1.00  0.00     0.035 C 
BRANCH  21  22
ATOM     22  C11 MOL     1       1.298  -5.417   2.651  1.00  0.00     0.002 C 
BRANCH  22  23
ATOM     23  C12 MOL     1      -0.004  -6.005   3.200  1.00  0.00    -0.003 C 
ATOM     24  C13 MOL     1      -0.806  -6.779   2.165  1.00  0.00     0.004 C 
ENDBRANCH  22  23
ENDBRANCH  21  22
ENDBRANCH   6  21
ENDBRANCH   1   6
BRANCH   3  25
ATOM     25  C16 MOL     1      -1.037   0.696  -1.080  1.00  0.00     0.268 C 
BRANCH  25  26
ATOM     26  N2  MOL     1      -0.021   1.293  -2.015  1.00  0.00    -0.330 N 
ATOM     27  H16 MOL     1       0.418   0.522  -2.531  1.00  0.00     0.347 HD
ATOM     28  H17 MOL     1       0.720   1.664  -1.397  1.00  0.00     0.347 HD
BRANCH  26  29
ATOM     29  C17 MOL     1      -0.463   2.398  -2.922  1.00  0.00     0.318 C 
BRANCH  29  30
ATOM     30  C18 MOL     1      -0.952   3.616  -2.150  1.00  0.00     0.099 A 
ATOM     31  N3  MOL     1      -0.426   3.829  -0.972  1.00  0.00    -0.228 NA
ATOM     32  C23 MOL     1      -1.994   4.471  -2.804  1.00  0.00     0.050 A 
ATOM     33  C19 MOL     1      -0.895   4.922  -0.294  1.00  0.00     0.155 A 
ATOM     34  C22 MOL     1      -2.417   5.516  -2.079  1.00  0.00     0.117 A 
ATOM     35  C20 MOL     1      -0.573   5.445   0.938  1.00  0.00     0.071 A 
ATOM     36  N5  MOL     1      -1.886   5.763  -0.819  1.00  0.00    -0.223 N 
ATOM     37  C21 MOL     1      -1.410   6.563   1.090  1.00  0.00     0.138 A 
ATOM     38  N4  MOL     1      -2.211   6.751   0.041  1.00  0.00    -0.175 NA
ENDBRANCH  29  30
ENDBRANCH  26  29
ENDBRANCH  25  26
BRANCH  25  39
ATOM     39  C24 MOL     1      -2.363   0.368  -1.748  1.00  0.00     0.024 A 
ATOM     40  C25 MOL     1      -3.557   1.103  -1.444  1.00  0.00    -0.005 A 
ATOM     41  C33 MOL     1      -2.398  -0.625  -2.758  1.00  0.00     0.015 A 
ATOM     42  C26 MOL     1      -3.652   2.111  -0.445  1.00  0.00     0.009 A 
ATOM     43  C30 MOL     1      -4.737   0.824  -2.187  1.00  0.00     0.024 A 
ATOM     44  C32 MOL     1      -3.567  -0.903  -3.455  1.00  0.00     0.047 A 
ATOM     45  C27 MOL     1      -4.831   2.822  -0.207  1.00  0.00     0.001 A 
ATOM     46  C29 MOL     1      -5.915   1.554  -1.927  1.00  0.00     0.012 A 
ATOM     47  C31 MOL     1      -4.718  -0.180  -3.174  1.00  0.00     0.123 A 
ATOM     48  C28 MOL     1      -5.964   2.546  -0.951  1.00  0.00     0.001 A 
BRANCH  47  49
ATOM     49  O3  MOL     1      -5.860  -0.448  -3.882  1.00  0.00    -0.507 OA
ATOM     50  H28 MOL     1      -5.772  -1.301  -4.338  1.00  0.00     0.293 HD
ENDBRANCH  47  49
ENDBRANCH  25  39
ENDBRANCH   3  25
TORSDOF 14
