REMARK SMILES CCCC[C@@H](C(=O)COc1c(F)c(F)cc(F)c1F)n1cc([C@H](CC(C)C)[NH2+]Cc2ccn3nccc3n2)nn1
REMARK SMILES IDX 20 1 21 2 22 3 39 4 40 5 5 6 6 7 7 8 8 9 9 10 10 11 11 12
REMARK SMILES IDX 18 13 12 14 13 15 16 16 19 17 14 18 15 19 17 20 4 21 3 22
REMARK SMILES IDX 2 23 1 24 23 25 28 26 29 29 30 30 38 31 31 32 37 33 32 34
REMARK SMILES IDX 36 35 33 36 35 37 34 38 24 39 25 40 26 41 27 42
REMARK H PARENT 28 27 28 28
REMARK Flexibility Score: inf
ROOT
ATOM      1  N1  MOL     1       1.599   0.023   0.984  1.00  0.00    -0.241 N 
ATOM      2  C14 MOL     1       1.596  -0.446  -0.301  1.00  0.00     0.141 A 
ATOM      3  C15 MOL     1       0.614  -1.413  -0.309  1.00  0.00     0.140 A 
ATOM      4  N6  MOL     1       0.067  -1.494   0.946  1.00  0.00    -0.129 NA
ATOM      5  N7  MOL     1       0.661  -0.599   1.720  1.00  0.00    -0.066 NA
ENDROOT
BRANCH   1   6
ATOM      6  C9  MOL     1       2.409   1.079   1.567  1.00  0.00     0.179 C 
BRANCH   6   7
ATOM      7  C1  MOL     1       2.274   2.344   0.727  1.00  0.00     0.194 C 
ATOM      8  O1  MOL     1       3.151   2.703  -0.063  1.00  0.00    -0.293 OA
BRANCH   7   9
ATOM      9  C2  MOL     1       0.971   3.118   0.852  1.00  0.00     0.307 C 
BRANCH   9  10
ATOM     10  O2  MOL     1      -0.013   2.374   0.142  1.00  0.00    -0.479 OA
BRANCH  10  11
ATOM     11  C3  MOL     1      -1.295   2.847   0.135  1.00  0.00     0.197 A 
ATOM     12  C4  MOL     1      -2.212   2.051  -0.559  1.00  0.00     0.203 A 
ATOM     13  C8  MOL     1      -1.768   4.011   0.744  1.00  0.00     0.203 A 
ATOM     14  F1  MOL     1      -1.798   0.921  -1.161  1.00  0.00    -0.199 F 
ATOM     15  C5  MOL     1      -3.560   2.398  -0.630  1.00  0.00     0.165 A 
ATOM     16  C7  MOL     1      -3.119   4.357   0.659  1.00  0.00     0.165 A 
ATOM     17  F4  MOL     1      -0.944   4.815   1.429  1.00  0.00    -0.199 F 
ATOM     18  F2  MOL     1      -4.414   1.593  -1.274  1.00  0.00    -0.203 F 
ATOM     19  C6  MOL     1      -4.026   3.555  -0.025  1.00  0.00     0.085 A 
ATOM     20  F3  MOL     1      -3.557   5.473   1.254  1.00  0.00    -0.203 F 
ENDBRANCH  10  11
ENDBRANCH   9  10
ENDBRANCH   7   9
ENDBRANCH   6   7
BRANCH   6  21
ATOM     21  C10 MOL     1       3.883   0.663   1.722  1.00  0.00     0.035 C 
BRANCH  21  22
ATOM     22  C11 MOL     1       4.128  -0.540   2.643  1.00  0.00     0.002 C 
BRANCH  22  23
ATOM     23  C12 MOL     1       3.721  -0.289   4.095  1.00  0.00    -0.003 C 
ATOM     24  C13 MOL     1       4.093  -1.465   4.986  1.00  0.00     0.004 C 
ENDBRANCH  22  23
ENDBRANCH  21  22
ENDBRANCH   6  21
ENDBRANCH   1   6
BRANCH   3  25
ATOM     25  C16 MOL     1       0.042  -2.246  -1.413  1.00  0.00     0.236 C 
BRANCH  25  26
ATOM     26  N2  MOL     1      -1.319  -1.730  -1.789  1.00  0.00    -0.334 N 
ATOM     27  H16 MOL     1      -1.642  -2.095  -2.700  1.00  0.00     0.347 HD
ATOM     28  H17 MOL     1      -1.287  -0.708  -1.919  1.00  0.00     0.347 HD
BRANCH  26  29
ATOM     29  C17 MOL     1      -2.435  -2.023  -0.818  1.00  0.00     0.318 C 
BRANCH  29  30
ATOM     30  C18 MOL     1      -3.772  -1.822  -1.522  1.00  0.00     0.099 A 
ATOM     31  N3  MOL     1      -3.745  -1.783  -2.829  1.00  0.00    -0.228 NA
ATOM     32  C23 MOL     1      -4.997  -1.705  -0.670  1.00  0.00     0.050 A 
ATOM     33  C19 MOL     1      -4.952  -1.596  -3.447  1.00  0.00     0.155 A 
ATOM     34  C22 MOL     1      -6.144  -1.527  -1.340  1.00  0.00     0.117 A 
ATOM     35  C20 MOL     1      -5.297  -1.490  -4.775  1.00  0.00     0.071 A 
ATOM     36  N5  MOL     1      -6.150  -1.466  -2.729  1.00  0.00    -0.223 N 
ATOM     37  C21 MOL     1      -6.689  -1.302  -4.776  1.00  0.00     0.138 A 
ATOM     38  N4  MOL     1      -7.208  -1.292  -3.549  1.00  0.00    -0.175 NA
ENDBRANCH  29  30
ENDBRANCH  26  29
ENDBRANCH  25  26
BRANCH  25  39
ATOM     39  C24 MOL     1       0.886  -2.278  -2.702  1.00  0.00     0.075 C 
BRANCH  39  40
ATOM     40  C25 MOL     1       2.257  -2.979  -2.571  1.00  0.00    -0.011 C 
ATOM     41  C26 MOL     1       3.035  -2.835  -3.882  1.00  0.00     0.007 C 
ATOM     42  C27 MOL     1       2.121  -4.460  -2.213  1.00  0.00     0.007 C 
ENDBRANCH  39  40
ENDBRANCH  25  39
ENDBRANCH   3  25
TORSDOF 14
