REMARK SMILES CCCC[C@@H](C(=O)COc1c(F)c(F)cc(F)c1F)n1cc([C@@H]([NH2+]Cc2ccn3nccc3n2)C(CC)CC)nn1
REMARK SMILES IDX 20 1 21 2 22 3 40 4 41 5 5 6 6 7 7 8 8 9 9 10 10 11 11 12
REMARK SMILES IDX 18 13 12 14 13 15 16 16 19 17 14 18 15 19 17 20 4 21 3 22
REMARK SMILES IDX 2 23 1 24 23 25 24 26 25 29 26 30 34 31 27 32 33 33 28 34
REMARK SMILES IDX 32 35 29 36 31 37 30 38 35 39 36 40 37 41 38 42 39 43
REMARK H PARENT 24 27 24 28
REMARK Flexibility Score: inf
ROOT
ATOM      1  N1  MOL     1      -0.654   1.408  -0.915  1.00  0.00    -0.241 N 
ATOM      2  C14 MOL     1      -0.929   0.860   0.306  1.00  0.00     0.141 A 
ATOM      3  C15 MOL     1      -2.225   0.404   0.190  1.00  0.00     0.140 A 
ATOM      4  N6  MOL     1      -2.667   0.650  -1.080  1.00  0.00    -0.129 NA
ATOM      5  N7  MOL     1      -1.700   1.264  -1.746  1.00  0.00    -0.066 NA
ENDROOT
BRANCH   1   6
ATOM      6  C9  MOL     1       0.552   2.081  -1.364  1.00  0.00     0.179 C 
BRANCH   6   7
ATOM      7  C1  MOL     1       1.683   1.071  -1.439  1.00  0.00     0.194 C 
ATOM      8  O1  MOL     1       2.134   0.535  -0.422  1.00  0.00    -0.293 OA
BRANCH   7   9
ATOM      9  C2  MOL     1       2.212   0.765  -2.840  1.00  0.00     0.307 C 
BRANCH   9  10
ATOM     10  O2  MOL     1       3.214  -0.236  -2.885  1.00  0.00    -0.479 OA
BRANCH  10  11
ATOM     11  C3  MOL     1       2.839  -1.552  -2.912  1.00  0.00     0.197 A 
ATOM     12  C4  MOL     1       3.877  -2.461  -3.146  1.00  0.00     0.203 A 
ATOM     13  C8  MOL     1       1.554  -2.064  -2.724  1.00  0.00     0.203 A 
ATOM     14  F1  MOL     1       5.128  -2.012  -3.323  1.00  0.00    -0.199 F 
ATOM     15  C5  MOL     1       3.634  -3.833  -3.204  1.00  0.00     0.165 A 
ATOM     16  C7  MOL     1       1.320  -3.440  -2.785  1.00  0.00     0.165 A 
ATOM     17  F4  MOL     1       0.510  -1.261  -2.463  1.00  0.00    -0.199 F 
ATOM     18  F2  MOL     1       4.641  -4.685  -3.437  1.00  0.00    -0.203 F 
ATOM     19  C6  MOL     1       2.352  -4.335  -3.027  1.00  0.00     0.085 A 
ATOM     20  F3  MOL     1       0.077  -3.906  -2.591  1.00  0.00    -0.203 F 
ENDBRANCH  10  11
ENDBRANCH   9  10
ENDBRANCH   7   9
ENDBRANCH   6   7
BRANCH   6  21
ATOM     21  C10 MOL     1       0.957   3.267  -0.473  1.00  0.00     0.035 C 
BRANCH  21  22
ATOM     22  C11 MOL     1      -0.077   4.398  -0.496  1.00  0.00     0.002 C 
BRANCH  22  23
ATOM     23  C12 MOL     1       0.354   5.567   0.391  1.00  0.00    -0.003 C 
ATOM     24  C13 MOL     1      -0.668   6.692   0.355  1.00  0.00     0.004 C 
ENDBRANCH  22  23
ENDBRANCH  21  22
ENDBRANCH   6  21
ENDBRANCH   1   6
BRANCH   3  25
ATOM     25  C16 MOL     1      -3.100  -0.323   1.161  1.00  0.00     0.239 C 
BRANCH  25  26
ATOM     26  N2  MOL     1      -2.433  -1.561   1.682  1.00  0.00    -0.333 N 
ATOM     27  H16 MOL     1      -2.770  -1.827   2.612  1.00  0.00     0.347 HD
ATOM     28  H17 MOL     1      -1.422  -1.357   1.795  1.00  0.00     0.347 HD
BRANCH  26  29
ATOM     29  C17 MOL     1      -2.460  -2.756   0.756  1.00  0.00     0.318 C 
BRANCH  29  30
ATOM     30  C18 MOL     1      -1.078  -3.400   0.742  1.00  0.00     0.099 A 
ATOM     31  N3  MOL     1      -0.083  -2.619   1.066  1.00  0.00    -0.228 NA
ATOM     32  C23 MOL     1      -0.970  -4.840   0.355  1.00  0.00     0.050 A 
ATOM     33  C19 MOL     1       1.165  -3.174   0.987  1.00  0.00     0.155 A 
ATOM     34  C22 MOL     1       0.278  -5.329   0.328  1.00  0.00     0.117 A 
ATOM     35  C20 MOL     1       2.420  -2.642   1.168  1.00  0.00     0.071 A 
ATOM     36  N5  MOL     1       1.364  -4.514   0.628  1.00  0.00    -0.223 N 
ATOM     37  C21 MOL     1       3.305  -3.701   0.917  1.00  0.00     0.138 A 
ATOM     38  N4  MOL     1       2.675  -4.830   0.587  1.00  0.00    -0.175 NA
ENDBRANCH  29  30
ENDBRANCH  26  29
ENDBRANCH  25  26
BRANCH  25  39
ATOM     39  C24 MOL     1      -3.648   0.549   2.333  1.00  0.00     0.053 C 
BRANCH  39  40
ATOM     40  C25 MOL     1      -4.643   1.592   1.750  1.00  0.00     0.007 C 
ATOM     41  C26 MOL     1      -5.512   2.282   2.795  1.00  0.00     0.004 C 
ENDBRANCH  39  40
BRANCH  39  42
ATOM     42  C27 MOL     1      -2.606   1.254   3.236  1.00  0.00     0.007 C 
ATOM     43  C28 MOL     1      -1.661   0.341   4.002  1.00  0.00     0.004 C 
ENDBRANCH  39  42
ENDBRANCH  25  39
ENDBRANCH   3  25
TORSDOF 15
