REMARK SMILES CCCC[C@@H](C(=O)COc1c(F)c(F)cc(F)c1F)n1cc([C@@H]([NH2+]Cc2ccc3c(c2)OCO3)C2CCCC2)nn1
REMARK SMILES IDX 20 1 21 2 22 3 40 4 41 5 5 6 6 7 7 8 8 9 9 10 10 11 11 12
REMARK SMILES IDX 18 13 12 14 13 15 16 16 19 17 14 18 15 19 17 20 4 21 3 22
REMARK SMILES IDX 2 23 1 24 23 25 24 26 25 29 26 30 27 31 31 32 28 33 30 34
REMARK SMILES IDX 29 35 32 36 34 37 33 38 35 39 36 40 39 41 37 42 38 43
REMARK H PARENT 24 27 24 28
REMARK Flexibility Score: inf
ROOT
ATOM      1  N1  MOL     1      -2.195  -1.609   1.170  1.00  0.00    -0.241 N 
ATOM      2  C14 MOL     1      -1.040  -1.622   0.436  1.00  0.00     0.141 A 
ATOM      3  C15 MOL     1      -1.285  -0.736  -0.593  1.00  0.00     0.140 A 
ATOM      4  N3  MOL     1      -2.535  -0.203  -0.428  1.00  0.00    -0.129 NA
ATOM      5  N4  MOL     1      -3.076  -0.734   0.657  1.00  0.00    -0.066 NA
ENDROOT
BRANCH   1   6
ATOM      6  C9  MOL     1      -2.477  -2.271   2.428  1.00  0.00     0.179 C 
BRANCH   6   7
ATOM      7  C1  MOL     1      -1.511  -1.730   3.479  1.00  0.00     0.194 C 
ATOM      8  O1  MOL     1      -0.555  -2.393   3.890  1.00  0.00    -0.293 OA
BRANCH   7   9
ATOM      9  C2  MOL     1      -1.718  -0.291   3.927  1.00  0.00     0.307 C 
BRANCH   9  10
ATOM     10  O2  MOL     1      -1.061   0.522   2.958  1.00  0.00    -0.479 OA
BRANCH  10  11
ATOM     11  C3  MOL     1      -1.262   1.874   3.021  1.00  0.00     0.197 A 
ATOM     12  C4  MOL     1      -0.758   2.599   1.936  1.00  0.00     0.203 A 
ATOM     13  C8  MOL     1      -1.894   2.581   4.045  1.00  0.00     0.203 A 
ATOM     14  F1  MOL     1      -0.141   1.955   0.929  1.00  0.00    -0.199 F 
ATOM     15  C5  MOL     1      -0.891   3.984   1.871  1.00  0.00     0.165 A 
ATOM     16  C7  MOL     1      -2.021   3.971   3.973  1.00  0.00     0.165 A 
ATOM     17  F4  MOL     1      -2.386   1.949   5.119  1.00  0.00    -0.199 F 
ATOM     18  F2  MOL     1      -0.403   4.645   0.813  1.00  0.00    -0.203 F 
ATOM     19  C6  MOL     1      -1.523   4.683   2.888  1.00  0.00     0.085 A 
ATOM     20  F3  MOL     1      -2.631   4.634   4.963  1.00  0.00    -0.203 F 
ENDBRANCH  10  11
ENDBRANCH   9  10
ENDBRANCH   7   9
ENDBRANCH   6   7
BRANCH   6  21
ATOM     21  C10 MOL     1      -2.416  -3.809   2.348  1.00  0.00     0.035 C 
BRANCH  21  22
ATOM     22  C11 MOL     1      -3.604  -4.469   1.633  1.00  0.00     0.002 C 
BRANCH  22  23
ATOM     23  C12 MOL     1      -3.631  -4.376   0.106  1.00  0.00    -0.003 C 
ATOM     24  C13 MOL     1      -2.441  -5.036  -0.571  1.00  0.00     0.004 C 
ENDBRANCH  22  23
ENDBRANCH  21  22
ENDBRANCH   6  21
ENDBRANCH   1   6
BRANCH   3  25
ATOM     25  C16 MOL     1      -0.414  -0.239  -1.705  1.00  0.00     0.239 C 
BRANCH  25  26
ATOM     26  N2  MOL     1       0.802   0.425  -1.125  1.00  0.00    -0.335 N 
ATOM     27  H16 MOL     1       0.473   1.008  -0.337  1.00  0.00     0.347 HD
ATOM     28  H17 MOL     1       1.420  -0.266  -0.687  1.00  0.00     0.347 HD
BRANCH  26  29
ATOM     29  C17 MOL     1       1.579   1.318  -2.022  1.00  0.00     0.298 C 
BRANCH  29  30
ATOM     30  C18 MOL     1       2.654   2.031  -1.251  1.00  0.00     0.010 A 
ATOM     31  C19 MOL     1       2.411   3.316  -0.710  1.00  0.00     0.013 A 
ATOM     32  C24 MOL     1       3.887   1.400  -1.010  1.00  0.00     0.060 A 
ATOM     33  C20 MOL     1       3.383   3.970   0.054  1.00  0.00     0.051 A 
ATOM     34  C23 MOL     1       4.823   2.074  -0.253  1.00  0.00     0.166 A 
ATOM     35  C21 MOL     1       4.579   3.322   0.265  1.00  0.00     0.165 A 
ATOM     36  O4  MOL     1       6.056   1.608   0.074  1.00  0.00    -0.454 OA
ATOM     37  O3  MOL     1       5.629   3.800   0.981  1.00  0.00    -0.454 OA
ATOM     38  C22 MOL     1       6.575   2.719   0.841  1.00  0.00     0.468 C 
ENDBRANCH  29  30
ENDBRANCH  26  29
ENDBRANCH  25  26
BRANCH  25  39
ATOM     39  C25 MOL     1      -0.017  -1.287  -2.760  1.00  0.00     0.054 C 
ATOM     40  C26 MOL     1       0.951  -2.390  -2.328  1.00  0.00     0.010 C 
ATOM     41  C29 MOL     1      -1.188  -2.086  -3.338  1.00  0.00     0.010 C 
ATOM     42  C27 MOL     1       0.819  -3.465  -3.407  1.00  0.00     0.001 C 
ATOM     43  C28 MOL     1      -0.504  -3.198  -4.125  1.00  0.00     0.001 C 
ENDBRANCH  25  39
ENDBRANCH   3  25
TORSDOF 13
