REMARK SMILES CCCC[C@@H](C(=O)COc1c(F)c(F)cc(F)c1F)n1cc([C@H](C2CCCC2)[N@@H+]2CCc3cc(OC)c(OC)cc3C2)nn1
REMARK SMILES IDX 5 1 6 2 7 3 8 4 9 5 10 6 11 7 18 8 12 9 13 10 16 11 19 12
REMARK SMILES IDX 14 13 15 14 17 15 4 16 3 17 2 18 1 19 20 20 21 21 44 22
REMARK SMILES IDX 22 23 43 24 23 25 29 26 42 27 30 28 41 30 31 31 32 32 40 33
REMARK SMILES IDX 33 34 37 35 34 36 38 37 39 38 35 39 36 40 24 41 25 42 28 43
REMARK SMILES IDX 26 44 27 45
REMARK H PARENT 29 29
REMARK Flexibility Score: inf
ROOT
ATOM      1  C9  MOL     1       4.020   1.617  -0.244  1.00  0.00     0.179 C 
ENDROOT
BRANCH   1   2
ATOM      2  C1  MOL     1       4.183   1.526  -1.760  1.00  0.00     0.194 C 
ATOM      3  O1  MOL     1       5.290   1.383  -2.288  1.00  0.00    -0.293 OA
BRANCH   2   4
ATOM      4  C2  MOL     1       2.940   1.634  -2.640  1.00  0.00     0.307 C 
BRANCH   4   5
ATOM      5  O2  MOL     1       1.875   2.326  -1.987  1.00  0.00    -0.479 OA
BRANCH   5   6
ATOM      6  C3  MOL     1       0.726   2.379  -2.737  1.00  0.00     0.197 A 
ATOM      7  C4  MOL     1       0.672   2.910  -4.029  1.00  0.00     0.203 A 
ATOM      8  C8  MOL     1      -0.465   1.967  -2.137  1.00  0.00     0.203 A 
ATOM      9  F1  MOL     1       1.776   3.398  -4.611  1.00  0.00    -0.199 F 
ATOM     10  C5  MOL     1      -0.539   2.974  -4.719  1.00  0.00     0.165 A 
ATOM     11  C7  MOL     1      -1.672   2.050  -2.832  1.00  0.00     0.165 A 
ATOM     12  F4  MOL     1      -0.468   1.478  -0.885  1.00  0.00    -0.199 F 
ATOM     13  F2  MOL     1      -0.572   3.468  -5.963  1.00  0.00    -0.203 F 
ATOM     14  C6  MOL     1      -1.719   2.541  -4.129  1.00  0.00     0.085 A 
ATOM     15  F3  MOL     1      -2.806   1.666  -2.231  1.00  0.00    -0.203 F 
ENDBRANCH   5   6
ENDBRANCH   4   5
ENDBRANCH   2   4
ENDBRANCH   1   2
BRANCH   1  16
ATOM     16  C10 MOL     1       5.359   1.368   0.478  1.00  0.00     0.035 C 
BRANCH  16  17
ATOM     17  C11 MOL     1       5.309   1.670   1.980  1.00  0.00     0.002 C 
BRANCH  17  18
ATOM     18  C12 MOL     1       6.689   1.514   2.620  1.00  0.00    -0.003 C 
ATOM     19  C13 MOL     1       6.650   1.812   4.110  1.00  0.00     0.004 C 
ENDBRANCH  17  18
ENDBRANCH  16  17
ENDBRANCH   1  16
BRANCH   1  20
ATOM     20  N1  MOL     1       2.979   0.718   0.228  1.00  0.00    -0.241 N 
ATOM     21  C14 MOL     1       1.982   0.984   1.127  1.00  0.00     0.141 A 
ATOM     22  N4  MOL     1       2.880  -0.539  -0.237  1.00  0.00    -0.066 NA
ATOM     23  C15 MOL     1       1.276  -0.197   1.202  1.00  0.00     0.140 A 
ATOM     24  N3  MOL     1       1.843  -1.108   0.352  1.00  0.00    -0.129 NA
BRANCH  23  25
ATOM     25  C16 MOL     1       0.047  -0.550   1.994  1.00  0.00     0.241 C 
BRANCH  25  26
ATOM     26  N2  MOL     1      -1.163  -0.626   1.061  1.00  0.00    -0.323 N 
ATOM     27  C17 MOL     1      -1.275  -1.875   0.222  1.00  0.00     0.300 C 
ATOM     28  C21 MOL     1      -2.492  -0.279   1.679  1.00  0.00     0.267 C 
ATOM     29  H16 MOL     1      -0.979   0.115   0.365  1.00  0.00     0.348 HD
ATOM     30  C18 MOL     1      -2.425  -1.812  -0.751  1.00  0.00     0.014 A 
ATOM     31  C20 MOL     1      -3.497   0.067   0.579  1.00  0.00     0.097 C 
ATOM     32  C19 MOL     1      -3.497  -0.925  -0.559  1.00  0.00    -0.030 A 
ATOM     33  C27 MOL     1      -2.445  -2.691  -1.847  1.00  0.00     0.060 A 
ATOM     34  C22 MOL     1      -4.556  -0.907  -1.480  1.00  0.00     0.054 A 
ATOM     35  C25 MOL     1      -3.502  -2.675  -2.762  1.00  0.00     0.161 A 
ATOM     36  C23 MOL     1      -4.568  -1.775  -2.577  1.00  0.00     0.161 A 
BRANCH  35  37
ATOM     37  O4  MOL     1      -3.587  -3.487  -3.864  1.00  0.00    -0.493 OA
ATOM     38  C26 MOL     1      -2.561  -4.445  -4.077  1.00  0.00     0.278 C 
ENDBRANCH  35  37
BRANCH  36  39
ATOM     39  O3  MOL     1      -5.562  -1.819  -3.521  1.00  0.00    -0.493 OA
ATOM     40  C24 MOL     1      -6.685  -0.965  -3.355  1.00  0.00     0.278 C 
ENDBRANCH  36  39
ENDBRANCH  25  26
BRANCH  25  41
ATOM     41  C28 MOL     1       0.258  -1.821   2.851  1.00  0.00     0.054 C 
ATOM     42  C29 MOL     1      -0.890  -2.190   3.796  1.00  0.00     0.010 C 
ATOM     43  C32 MOL     1       1.432  -1.679   3.833  1.00  0.00     0.010 C 
ATOM     44  C30 MOL     1      -0.261  -3.020   4.916  1.00  0.00     0.001 C 
ATOM     45  C31 MOL     1       1.248  -2.856   4.777  1.00  0.00     0.001 C 
ENDBRANCH  25  41
ENDBRANCH  23  25
ENDBRANCH   1  20
TORSDOF 13
