REMARK SMILES CCCC[C@@H](C(=O)COc1c(F)c(F)cc(F)c1F)n1cc([C@@H]([NH2+]Cc2ccco2)C2CCCC2)nn1
REMARK SMILES IDX 20 1 21 2 22 3 36 4 37 5 5 6 6 7 7 8 8 9 9 10 10 11 11 12
REMARK SMILES IDX 18 13 12 14 13 15 16 16 19 17 14 18 15 19 17 20 4 21 3 22
REMARK SMILES IDX 2 23 1 24 23 25 24 26 25 29 26 30 27 31 30 32 28 33 29 34
REMARK SMILES IDX 31 35 32 36 35 37 33 38 34 39
REMARK H PARENT 24 27 24 28
REMARK Flexibility Score: inf
ROOT
ATOM      1  N1  MOL     1       0.483  -1.474   0.653  1.00  0.00    -0.241 N 
ATOM      2  C14 MOL     1       1.385  -0.465   0.450  1.00  0.00     0.141 A 
ATOM      3  C15 MOL     1       0.606   0.658   0.272  1.00  0.00     0.140 A 
ATOM      4  N3  MOL     1      -0.716   0.291   0.334  1.00  0.00    -0.129 NA
ATOM      5  N4  MOL     1      -0.776  -1.015   0.537  1.00  0.00    -0.066 NA
ENDROOT
BRANCH   1   6
ATOM      6  C9  MOL     1       0.768  -2.863   0.977  1.00  0.00     0.179 C 
BRANCH   6   7
ATOM      7  C1  MOL     1       1.088  -3.664  -0.272  1.00  0.00     0.194 C 
ATOM      8  O1  MOL     1       2.126  -4.330  -0.331  1.00  0.00    -0.293 OA
BRANCH   7   9
ATOM      9  C2  MOL     1       0.099  -3.659  -1.423  1.00  0.00     0.307 C 
BRANCH   9  10
ATOM     10  O2  MOL     1       0.290  -2.445  -2.140  1.00  0.00    -0.479 OA
BRANCH  10  11
ATOM     11  C3  MOL     1      -0.602  -2.159  -3.136  1.00  0.00     0.197 A 
ATOM     12  C4  MOL     1      -1.549  -3.023  -3.691  1.00  0.00     0.203 A 
ATOM     13  C8  MOL     1      -0.534  -0.855  -3.635  1.00  0.00     0.203 A 
ATOM     14  F1  MOL     1      -1.668  -4.287  -3.263  1.00  0.00    -0.199 F 
ATOM     15  C5  MOL     1      -2.401  -2.584  -4.708  1.00  0.00     0.165 A 
ATOM     16  C7  MOL     1      -1.398  -0.421  -4.639  1.00  0.00     0.165 A 
ATOM     17  F4  MOL     1       0.349   0.016  -3.116  1.00  0.00    -0.199 F 
ATOM     18  F2  MOL     1      -3.307  -3.423  -5.226  1.00  0.00    -0.203 F 
ATOM     19  C6  MOL     1      -2.337  -1.281  -5.188  1.00  0.00     0.085 A 
ATOM     20  F3  MOL     1      -1.341   0.853  -5.054  1.00  0.00    -0.203 F 
ENDBRANCH  10  11
ENDBRANCH   9  10
ENDBRANCH   7   9
ENDBRANCH   6   7
BRANCH   6  21
ATOM     21  C10 MOL     1      -0.306  -3.583   1.812  1.00  0.00     0.035 C 
BRANCH  21  22
ATOM     22  C11 MOL     1      -0.405  -3.038   3.242  1.00  0.00     0.002 C 
BRANCH  22  23
ATOM     23  C12 MOL     1      -1.462  -3.793   4.048  1.00  0.00    -0.003 C 
ATOM     24  C13 MOL     1      -1.576  -3.254   5.465  1.00  0.00     0.004 C 
ENDBRANCH  22  23
ENDBRANCH  21  22
ENDBRANCH   6  21
ENDBRANCH   1   6
BRANCH   3  25
ATOM     25  C16 MOL     1       0.980   2.092   0.032  1.00  0.00     0.239 C 
BRANCH  25  26
ATOM     26  N2  MOL     1      -0.195   2.867  -0.495  1.00  0.00    -0.332 N 
ATOM     27  H16 MOL     1      -1.012   2.661   0.095  1.00  0.00     0.347 HD
ATOM     28  H17 MOL     1      -0.055   3.882  -0.440  1.00  0.00     0.347 HD
BRANCH  26  29
ATOM     29  C17 MOL     1      -0.593   2.587  -1.907  1.00  0.00     0.337 C 
BRANCH  29  30
ATOM     30  C18 MOL     1      -1.539   3.622  -2.390  1.00  0.00     0.157 A 
ATOM     31  C19 MOL     1      -2.529   3.641  -3.348  1.00  0.00     0.052 A 
ATOM     32  O3  MOL     1      -1.455   4.844  -1.780  1.00  0.00    -0.463 OA
ATOM     33  C20 MOL     1      -3.078   4.946  -3.328  1.00  0.00     0.042 A 
ATOM     34  C21 MOL     1      -2.392   5.640  -2.360  1.00  0.00     0.195 A 
ENDBRANCH  29  30
ENDBRANCH  26  29
ENDBRANCH  25  26
BRANCH  25  35
ATOM     35  C22 MOL     1       1.474   2.789   1.322  1.00  0.00     0.054 C 
ATOM     36  C23 MOL     1       1.861   4.262   1.137  1.00  0.00     0.010 C 
ATOM     37  C26 MOL     1       2.777   2.203   1.880  1.00  0.00     0.010 C 
ATOM     38  C24 MOL     1       2.727   4.594   2.347  1.00  0.00     0.001 C 
ATOM     39  C25 MOL     1       3.310   3.270   2.829  1.00  0.00     0.001 C 
ENDBRANCH  25  35
ENDBRANCH   3  25
TORSDOF 13
