REMARK SMILES CCCC[C@@H](C(=O)COc1c(F)c(F)cc(F)c1F)n1cc([C@@H]([NH2+]Cc2ccc3[nH]ccc3c2)C2CCCC2)nn1
REMARK SMILES IDX 20 1 21 2 22 3 40 4 41 5 5 6 6 7 7 8 8 9 9 10 10 11 11 12
REMARK SMILES IDX 18 13 12 14 13 15 16 16 19 17 14 18 15 19 17 20 4 21 3 22
REMARK SMILES IDX 2 23 1 24 23 25 24 26 25 29 26 30 27 31 34 32 28 33 33 34
REMARK SMILES IDX 29 35 32 36 30 37 31 38 35 40 36 41 39 42 37 43 38 44
REMARK H PARENT 24 27 24 28 30 39
REMARK Flexibility Score: inf
ROOT
ATOM      1  N1  MOL     1      -0.112   1.496  -1.234  1.00  0.00    -0.241 N 
ATOM      2  C14 MOL     1       0.326   0.428  -0.500  1.00  0.00     0.141 A 
ATOM      3  C15 MOL     1      -0.797  -0.355  -0.344  1.00  0.00     0.140 A 
ATOM      4  N4  MOL     1      -1.852   0.245  -0.985  1.00  0.00    -0.129 NA
ATOM      5  N5  MOL     1      -1.421   1.372  -1.526  1.00  0.00    -0.066 NA
ENDROOT
BRANCH   1   6
ATOM      6  C9  MOL     1       0.646   2.683  -1.607  1.00  0.00     0.179 C 
BRANCH   6   7
ATOM      7  C1  MOL     1       0.726   3.638  -0.425  1.00  0.00     0.194 C 
ATOM      8  O1  MOL     1       1.825   3.955   0.041  1.00  0.00    -0.293 OA
BRANCH   7   9
ATOM      9  C2  MOL     1      -0.561   4.186   0.173  1.00  0.00     0.307 C 
BRANCH   9  10
ATOM     10  O2  MOL     1      -1.135   3.171   0.989  1.00  0.00    -0.479 OA
BRANCH  10  11
ATOM     11  C3  MOL     1      -2.403   3.382   1.457  1.00  0.00     0.197 A 
ATOM     12  C4  MOL     1      -3.038   2.259   1.994  1.00  0.00     0.203 A 
ATOM     13  C8  MOL     1      -3.102   4.591   1.462  1.00  0.00     0.203 A 
ATOM     14  F1  MOL     1      -2.411   1.068   2.006  1.00  0.00    -0.199 F 
ATOM     15  C5  MOL     1      -4.331   2.335   2.506  1.00  0.00     0.165 A 
ATOM     16  C7  MOL     1      -4.397   4.660   1.982  1.00  0.00     0.165 A 
ATOM     17  F4  MOL     1      -2.550   5.711   0.973  1.00  0.00    -0.199 F 
ATOM     18  F2  MOL     1      -4.911   1.228   2.988  1.00  0.00    -0.203 F 
ATOM     19  C6  MOL     1      -5.024   3.536   2.506  1.00  0.00     0.085 A 
ATOM     20  F3  MOL     1      -5.054   5.827   1.976  1.00  0.00    -0.203 F 
ENDBRANCH  10  11
ENDBRANCH   9  10
ENDBRANCH   7   9
ENDBRANCH   6   7
BRANCH   6  21
ATOM     21  C10 MOL     1       0.143   3.364  -2.892  1.00  0.00     0.035 C 
BRANCH  21  22
ATOM     22  C11 MOL     1       0.995   4.548  -3.368  1.00  0.00     0.002 C 
BRANCH  22  23
ATOM     23  C12 MOL     1       2.463   4.237  -3.667  1.00  0.00    -0.003 C 
ATOM     24  C13 MOL     1       2.654   3.173  -4.736  1.00  0.00     0.004 C 
ENDBRANCH  22  23
ENDBRANCH  21  22
ENDBRANCH   6  21
ENDBRANCH   1   6
BRANCH   3  25
ATOM     25  C16 MOL     1      -1.020  -1.605   0.452  1.00  0.00     0.239 C 
BRANCH  25  26
ATOM     26  N2  MOL     1      -2.397  -1.517   1.067  1.00  0.00    -0.335 N 
ATOM     27  H16 MOL     1      -2.452  -0.577   1.491  1.00  0.00     0.347 HD
ATOM     28  H17 MOL     1      -3.083  -1.481   0.303  1.00  0.00     0.347 HD
BRANCH  26  29
ATOM     29  C17 MOL     1      -2.798  -2.501   2.101  1.00  0.00     0.297 C 
BRANCH  29  30
ATOM     30  C18 MOL     1      -1.944  -2.434   3.334  1.00  0.00     0.007 A 
ATOM     31  C19 MOL     1      -2.110  -1.388   4.253  1.00  0.00     0.012 A 
ATOM     32  C25 MOL     1      -0.940  -3.397   3.550  1.00  0.00     0.020 A 
ATOM     33  C20 MOL     1      -1.294  -1.270   5.383  1.00  0.00     0.027 A 
ATOM     34  C24 MOL     1      -0.102  -3.292   4.678  1.00  0.00    -0.000 A 
ATOM     35  C21 MOL     1      -0.298  -2.235   5.565  1.00  0.00     0.045 A 
ATOM     36  C23 MOL     1       0.981  -4.065   5.177  1.00  0.00     0.028 A 
ATOM     37  N3  MOL     1       0.635  -2.371   6.570  1.00  0.00    -0.361 N 
ATOM     38  C22 MOL     1       1.415  -3.473   6.341  1.00  0.00     0.083 A 
ATOM     39  H22 MOL     1       0.725  -1.750   7.364  1.00  0.00     0.166 HD
ENDBRANCH  29  30
ENDBRANCH  26  29
ENDBRANCH  25  26
BRANCH  25  40
ATOM     40  C26 MOL     1      -0.877  -2.910  -0.351  1.00  0.00     0.054 C 
ATOM     41  C27 MOL     1      -1.855  -3.116  -1.511  1.00  0.00     0.010 C 
ATOM     42  C30 MOL     1       0.479  -3.100  -1.035  1.00  0.00     0.010 C 
ATOM     43  C28 MOL     1      -1.227  -4.227  -2.353  1.00  0.00     0.001 C 
ATOM     44  C29 MOL     1       0.245  -4.299  -1.946  1.00  0.00     0.001 C 
ENDBRANCH  25  40
ENDBRANCH   3  25
TORSDOF 13
