REMARK SMILES CCCC[C@@H](C(=O)COc1c(F)c(F)cc(F)c1F)n1cc([C@@](C)(NC(=O)c2ccc3ncccc3c2)C(C)C)nn1
REMARK SMILES IDX 5 1 4 2 3 3 2 4 1 5 6 6 7 7 8 8 9 9 10 10 11 11 18 12 12 13
REMARK SMILES IDX 13 14 16 15 19 16 14 17 15 18 17 19 20 20 21 21 42 22 22 23
REMARK SMILES IDX 41 24 23 25 24 26 38 27 39 28 40 29 25 30 26 31 27 33 28 34
REMARK SMILES IDX 37 35 29 36 36 37 30 38 31 39 35 40 32 41 34 42 33 43
REMARK H PARENT 25 32
REMARK Flexibility Score: inf
ROOT
ATOM      1  C5  MOL     1       0.839  -1.526   3.044  1.00  0.00     0.179 C 
ENDROOT
BRANCH   1   2
ATOM      2  C4  MOL     1       2.007  -1.764   4.019  1.00  0.00     0.035 C 
BRANCH   2   3
ATOM      3  C3  MOL     1       3.220  -2.488   3.418  1.00  0.00     0.002 C 
BRANCH   3   4
ATOM      4  C2  MOL     1       2.906  -3.903   2.930  1.00  0.00    -0.003 C 
ATOM      5  C1  MOL     1       4.161  -4.615   2.448  1.00  0.00     0.004 C 
ENDBRANCH   3   4
ENDBRANCH   2   3
ENDBRANCH   1   2
BRANCH   1   6
ATOM      6  C6  MOL     1      -0.363  -0.881   3.740  1.00  0.00     0.194 C 
ATOM      7  O2  MOL     1      -0.415  -0.739   4.966  1.00  0.00    -0.293 OA
BRANCH   6   8
ATOM      8  C7  MOL     1      -1.532  -0.448   2.862  1.00  0.00     0.307 C 
BRANCH   8   9
ATOM      9  O1  MOL     1      -1.820  -1.530   1.983  1.00  0.00    -0.479 OA
BRANCH   9  10
ATOM     10  C8  MOL     1      -2.670  -1.293   0.937  1.00  0.00     0.197 A 
ATOM     11  C9  MOL     1      -2.740  -2.315  -0.015  1.00  0.00     0.203 A 
ATOM     12  C13 MOL     1      -3.472  -0.165   0.751  1.00  0.00     0.203 A 
ATOM     13  F1  MOL     1      -1.990  -3.419   0.138  1.00  0.00    -0.199 F 
ATOM     14  C10 MOL     1      -3.598  -2.221  -1.109  1.00  0.00     0.165 A 
ATOM     15  C12 MOL     1      -4.321  -0.075  -0.353  1.00  0.00     0.165 A 
ATOM     16  F4  MOL     1      -3.471   0.842   1.638  1.00  0.00    -0.199 F 
ATOM     17  F2  MOL     1      -3.682  -3.232  -1.986  1.00  0.00    -0.203 F 
ATOM     18  C11 MOL     1      -4.396  -1.101  -1.287  1.00  0.00     0.085 A 
ATOM     19  F3  MOL     1      -5.096   1.007  -0.513  1.00  0.00    -0.203 F 
ENDBRANCH   9  10
ENDBRANCH   8   9
ENDBRANCH   6   8
ENDBRANCH   1   6
BRANCH   1  20
ATOM     20  N1  MOL     1       1.235  -0.730   1.896  1.00  0.00    -0.242 N 
ATOM     21  C14 MOL     1       1.266  -1.107   0.586  1.00  0.00     0.138 A 
ATOM     22  N5  MOL     1       1.565   0.565   2.040  1.00  0.00    -0.066 NA
ATOM     23  C15 MOL     1       1.611   0.045  -0.090  1.00  0.00     0.108 A 
ATOM     24  N4  MOL     1       1.788   1.055   0.832  1.00  0.00    -0.133 NA
BRANCH  23  25
ATOM     25  C16 MOL     1       1.754   0.334  -1.573  1.00  0.00     0.085 C 
ATOM     26  C20 MOL     1       1.581  -0.932  -2.440  1.00  0.00     0.042 C 
BRANCH  25  27
ATOM     27  C17 MOL     1       3.158   1.005  -1.851  1.00  0.00     0.014 C 
ATOM     28  C18 MOL     1       3.338   1.448  -3.312  1.00  0.00     0.010 C 
ATOM     29  C19 MOL     1       4.356   0.129  -1.450  1.00  0.00     0.010 C 
ENDBRANCH  25  27
BRANCH  25  30
ATOM     30  N2  MOL     1       0.707   1.341  -1.861  1.00  0.00    -0.341 N 
ATOM     31  C21 MOL     1      -0.647   1.088  -1.856  1.00  0.00     0.252 C 
ATOM     32  H25 MOL     1       0.987   2.297  -1.688  1.00  0.00     0.164 HD
ATOM     33  O3  MOL     1      -1.171  -0.018  -1.899  1.00  0.00    -0.269 OA
BRANCH  31  34
ATOM     34  C22 MOL     1      -1.518   2.284  -1.795  1.00  0.00     0.040 A 
ATOM     35  C23 MOL     1      -2.641   2.339  -2.623  1.00  0.00     0.024 A 
ATOM     36  C30 MOL     1      -1.266   3.319  -0.894  1.00  0.00     0.016 A 
ATOM     37  C24 MOL     1      -3.504   3.447  -2.567  1.00  0.00     0.001 A 
ATOM     38  C29 MOL     1      -2.132   4.418  -0.847  1.00  0.00     0.030 A 
ATOM     39  C25 MOL     1      -3.248   4.507  -1.669  1.00  0.00     0.070 A 
ATOM     40  C28 MOL     1      -4.637   3.537  -3.386  1.00  0.00     0.012 A 
ATOM     41  N3  MOL     1      -4.043   5.587  -1.586  1.00  0.00    -0.256 NA
ATOM     42  C27 MOL     1      -5.464   4.650  -3.298  1.00  0.00     0.021 A 
ATOM     43  C26 MOL     1      -5.128   5.638  -2.391  1.00  0.00     0.112 A 
ENDBRANCH  31  34
ENDBRANCH  25  30
ENDBRANCH  23  25
ENDBRANCH   1  20
TORSDOF 12
