REMARK SMILES CCCC[C@@H](C(=O)COc1c(F)c(F)cc(F)c1F)n1cc([C@@](C)([NH2+]Cc2ccncc2)C(C)C)nn1
REMARK SMILES IDX 20 1 21 2 22 3 36 4 37 5 5 6 4 7 3 8 2 9 1 10 6 11 7 12 8 13
REMARK SMILES IDX 9 14 10 15 11 16 18 17 12 18 13 19 16 20 19 21 14 22 15 23
REMARK SMILES IDX 17 24 23 25 24 26 33 27 34 28 35 29 25 30 26 33 27 34 28 35
REMARK SMILES IDX 32 36 29 37 31 38 30 39
REMARK H PARENT 25 31 25 32
REMARK Flexibility Score: inf
ROOT
ATOM      1  N1  MOL     1      -0.331  -0.531   2.717  1.00  0.00    -0.241 N 
ATOM      2  C14 MOL     1      -1.217  -1.474   2.274  1.00  0.00     0.142 A 
ATOM      3  C15 MOL     1      -0.895  -1.647   0.944  1.00  0.00     0.143 A 
ATOM      4  N4  MOL     1       0.188  -0.853   0.649  1.00  0.00    -0.129 NA
ATOM      5  N5  MOL     1       0.540  -0.203   1.746  1.00  0.00    -0.066 NA
ENDROOT
BRANCH   1   6
ATOM      6  C5  MOL     1      -0.340   0.161   3.995  1.00  0.00     0.179 C 
BRANCH   6   7
ATOM      7  C4  MOL     1       1.048   0.436   4.600  1.00  0.00     0.035 C 
BRANCH   7   8
ATOM      8  C3  MOL     1       1.754  -0.855   5.033  1.00  0.00     0.002 C 
BRANCH   8   9
ATOM      9  C2  MOL     1       3.170  -0.619   5.561  1.00  0.00    -0.003 C 
ATOM     10  C1  MOL     1       3.207   0.130   6.885  1.00  0.00     0.004 C 
ENDBRANCH   8   9
ENDBRANCH   7   8
ENDBRANCH   6   7
BRANCH   6  11
ATOM     11  C6  MOL     1      -1.184   1.426   3.883  1.00  0.00     0.194 C 
ATOM     12  O2  MOL     1      -2.273   1.500   4.468  1.00  0.00    -0.293 OA
BRANCH  11  13
ATOM     13  C7  MOL     1      -0.703   2.554   2.982  1.00  0.00     0.307 C 
BRANCH  13  14
ATOM     14  O1  MOL     1      -1.167   2.277   1.661  1.00  0.00    -0.479 OA
BRANCH  14  15
ATOM     15  C8  MOL     1      -0.542   2.945   0.641  1.00  0.00     0.197 A 
ATOM     16  C9  MOL     1       0.194   4.128   0.756  1.00  0.00     0.203 A 
ATOM     17  C13 MOL     1      -0.677   2.376  -0.630  1.00  0.00     0.203 A 
ATOM     18  F1  MOL     1       0.330   4.742   1.939  1.00  0.00    -0.199 F 
ATOM     19  C10 MOL     1       0.795   4.703  -0.365  1.00  0.00     0.165 A 
ATOM     20  C12 MOL     1      -0.058   2.949  -1.740  1.00  0.00     0.165 A 
ATOM     21  F4  MOL     1      -1.391   1.247  -0.792  1.00  0.00    -0.199 F 
ATOM     22  F2  MOL     1       1.490   5.840  -0.240  1.00  0.00    -0.203 F 
ATOM     23  C11 MOL     1       0.681   4.117  -1.619  1.00  0.00     0.085 A 
ATOM     24  F3  MOL     1      -0.151   2.351  -2.935  1.00  0.00    -0.203 F 
ENDBRANCH  14  15
ENDBRANCH  13  14
ENDBRANCH  11  13
ENDBRANCH   6  11
ENDBRANCH   1   6
BRANCH   3  25
ATOM     25  C16 MOL     1      -1.569  -2.428  -0.167  1.00  0.00     0.142 C 
ATOM     26  C20 MOL     1      -2.960  -2.932   0.286  1.00  0.00     0.087 C 
BRANCH  25  27
ATOM     27  C17 MOL     1      -0.686  -3.615  -0.695  1.00  0.00     0.051 C 
ATOM     28  C18 MOL     1       0.651  -3.202  -1.336  1.00  0.00     0.014 C 
ATOM     29  C19 MOL     1      -0.397  -4.679   0.381  1.00  0.00     0.014 C 
ENDBRANCH  25  27
BRANCH  25  30
ATOM     30  N2  MOL     1      -1.809  -1.419  -1.288  1.00  0.00    -0.333 N 
ATOM     31  H25 MOL     1      -0.910  -0.950  -1.479  1.00  0.00     0.347 HD
ATOM     32  H26 MOL     1      -2.364  -0.641  -0.900  1.00  0.00     0.347 HD
BRANCH  30  33
ATOM     33  C21 MOL     1      -2.424  -1.846  -2.571  1.00  0.00     0.298 C 
BRANCH  33  34
ATOM     34  C22 MOL     1      -2.788  -0.659  -3.413  1.00  0.00     0.009 A 
ATOM     35  C23 MOL     1      -1.842  -0.052  -4.246  1.00  0.00     0.029 A 
ATOM     36  C26 MOL     1      -4.073  -0.106  -3.348  1.00  0.00     0.029 A 
ATOM     37  C24 MOL     1      -2.217   1.075  -4.962  1.00  0.00     0.111 A 
ATOM     38  C25 MOL     1      -4.354   1.018  -4.109  1.00  0.00     0.111 A 
ATOM     39  N3  MOL     1      -3.449   1.621  -4.903  1.00  0.00    -0.265 NA
ENDBRANCH  33  34
ENDBRANCH  30  33
ENDBRANCH  25  30
ENDBRANCH   3  25
TORSDOF 13
