REMARK SMILES C[C@@]([NH2+]Cc1ccc2ncsc2c1)(c1cn([C@@H](CCS(C)(=O)=O)C(=O)COc2c(F)c(F)cc(F)c2F)nn1)C1CCCC1
REMARK SMILES IDX 16 1 15 2 14 3 39 4 38 5 17 6 18 7 19 8 20 9 21 10 22 11
REMARK SMILES IDX 23 12 24 13 25 14 26 15 27 16 28 17 29 18 36 19 30 20 31 21
REMARK SMILES IDX 34 22 37 23 32 24 33 25 35 26 2 27 1 28 40 29 41 30 44 31
REMARK SMILES IDX 42 32 43 33 3 34 4 37 5 38 13 39 6 40 12 41 7 42 8 43 11 44
REMARK SMILES IDX 9 45 10 46
REMARK H PARENT 3 35 3 36
REMARK Flexibility Score: inf
ROOT
ATOM      1  N1  MOL     1      -1.093   1.380   0.988  1.00  0.00    -0.241 N 
ATOM      2  C13 MOL     1       0.143   1.859   0.652  1.00  0.00     0.142 A 
ATOM      3  C14 MOL     1       0.768   0.789   0.046  1.00  0.00     0.143 A 
ATOM      4  N4  MOL     1      -0.108  -0.272   0.010  1.00  0.00    -0.129 NA
ATOM      5  N5  MOL     1      -1.239   0.103   0.584  1.00  0.00    -0.066 NA
ENDROOT
BRANCH   1   6
ATOM      6  C4  MOL     1      -2.153   2.028   1.737  1.00  0.00     0.180 C 
BRANCH   6   7
ATOM      7  C3  MOL     1      -1.855   2.102   3.255  1.00  0.00     0.052 C 
BRANCH   7   8
ATOM      8  C2  MOL     1      -1.876   0.727   3.928  1.00  0.00     0.139 C 
BRANCH   8   9
ATOM      9  S1  MOL     1      -0.262   0.191   4.481  1.00  0.00     0.147 S 
ATOM     10  C1  MOL     1      -0.551  -1.504   4.943  1.00  0.00     0.158 C 
ATOM     11  O3  MOL     1       0.633   0.182   3.336  1.00  0.00    -0.229 OA
ATOM     12  O4  MOL     1       0.085   0.930   5.677  1.00  0.00    -0.229 OA
ENDBRANCH   8   9
ENDBRANCH   7   8
ENDBRANCH   6   7
BRANCH   6  13
ATOM     13  C5  MOL     1      -2.441   3.399   1.139  1.00  0.00     0.194 C 
ATOM     14  O2  MOL     1      -2.132   4.440   1.726  1.00  0.00    -0.293 OA
BRANCH  13  15
ATOM     15  C6  MOL     1      -3.039   3.459  -0.262  1.00  0.00     0.307 C 
BRANCH  15  16
ATOM     16  O1  MOL     1      -3.689   2.231  -0.568  1.00  0.00    -0.479 OA
BRANCH  16  17
ATOM     17  C7  MOL     1      -3.913   2.042  -1.905  1.00  0.00     0.197 A 
ATOM     18  C8  MOL     1      -5.225   1.818  -2.324  1.00  0.00     0.203 A 
ATOM     19  C12 MOL     1      -2.883   1.959  -2.841  1.00  0.00     0.203 A 
ATOM     20  F1  MOL     1      -6.221   1.851  -1.433  1.00  0.00    -0.199 F 
ATOM     21  C9  MOL     1      -5.502   1.558  -3.667  1.00  0.00     0.165 A 
ATOM     22  C11 MOL     1      -3.170   1.703  -4.181  1.00  0.00     0.165 A 
ATOM     23  F4  MOL     1      -1.604   2.104  -2.456  1.00  0.00    -0.199 F 
ATOM     24  F2  MOL     1      -6.766   1.350  -4.063  1.00  0.00    -0.203 F 
ATOM     25  C10 MOL     1      -4.479   1.503  -4.608  1.00  0.00     0.085 A 
ATOM     26  F3  MOL     1      -2.169   1.635  -5.067  1.00  0.00    -0.203 F 
ENDBRANCH  16  17
ENDBRANCH  15  16
ENDBRANCH  13  15
ENDBRANCH   6  13
ENDBRANCH   1   6
BRANCH   3  27
ATOM     27  C15 MOL     1       2.176   0.599  -0.472  1.00  0.00     0.142 C 
ATOM     28  C21 MOL     1       3.193   1.490   0.268  1.00  0.00     0.087 C 
BRANCH  27  29
ATOM     29  C16 MOL     1       2.287   0.853  -2.007  1.00  0.00     0.057 C 
ATOM     30  C17 MOL     1       1.914   2.262  -2.480  1.00  0.00     0.010 C 
ATOM     31  C20 MOL     1       1.418  -0.032  -2.917  1.00  0.00     0.010 C 
ATOM     32  C18 MOL     1       1.864   2.120  -3.997  1.00  0.00     0.001 C 
ATOM     33  C19 MOL     1       1.374   0.699  -4.260  1.00  0.00     0.001 C 
ENDBRANCH  27  29
BRANCH  27  34
ATOM     34  N2  MOL     1       2.592  -0.862  -0.260  1.00  0.00    -0.332 N 
ATOM     35  H25 MOL     1       1.808  -1.424  -0.624  1.00  0.00     0.347 HD
ATOM     36  H26 MOL     1       3.412  -1.106  -0.824  1.00  0.00     0.347 HD
BRANCH  34  37
ATOM     37  C22 MOL     1       2.802  -1.315   1.146  1.00  0.00     0.298 C 
BRANCH  37  38
ATOM     38  C23 MOL     1       2.728  -2.815   1.265  1.00  0.00     0.008 A 
ATOM     39  C24 MOL     1       1.471  -3.439   1.391  1.00  0.00     0.031 A 
ATOM     40  C29 MOL     1       3.892  -3.588   1.249  1.00  0.00     0.012 A 
ATOM     41  C25 MOL     1       1.422  -4.836   1.530  1.00  0.00     0.055 A 
ATOM     42  C28 MOL     1       3.824  -4.982   1.371  1.00  0.00     0.030 A 
ATOM     43  C26 MOL     1       2.577  -5.619   1.521  1.00  0.00     0.081 A 
ATOM     44  S2  MOL     1       0.052  -5.862   1.734  1.00  0.00    -0.122 S 
ATOM     45  N3  MOL     1       2.374  -6.979   1.666  1.00  0.00    -0.245 NA
ATOM     46  C27 MOL     1       1.090  -7.224   1.794  1.00  0.00     0.176 A 
ENDBRANCH  37  38
ENDBRANCH  34  37
ENDBRANCH  27  34
ENDBRANCH   3  27
TORSDOF 13
