REMARK SMILES CCCC[C@@H](C(=O)COc1c(F)c(F)cc(F)c1F)n1cc([C@@](C)([NH2+]Cc2ccc3ncccc3c2)C2CCCC2)nn1
REMARK SMILES IDX 20 1 21 2 22 3 42 4 43 5 5 6 4 7 3 8 2 9 1 10 6 11 7 12 8 13
REMARK SMILES IDX 9 14 10 15 11 16 18 17 12 18 13 19 16 20 19 21 14 22 15 23
REMARK SMILES IDX 17 24 23 25 24 26 37 27 38 28 41 29 39 30 40 31 25 32 26 35
REMARK SMILES IDX 27 36 36 37 28 38 35 39 29 40 30 41 34 42 31 43 33 44 32 45
REMARK H PARENT 25 33 25 34
REMARK Flexibility Score: inf
ROOT
ATOM      1  N1  MOL     1       1.375  -1.199  -1.212  1.00  0.00    -0.241 N 
ATOM      2  C14 MOL     1       0.040  -1.481  -1.126  1.00  0.00     0.142 A 
ATOM      3  C15 MOL     1      -0.284  -1.238   0.194  1.00  0.00     0.143 A 
ATOM      4  N4  MOL     1       0.864  -0.868   0.852  1.00  0.00    -0.129 NA
ATOM      5  N5  MOL     1       1.859  -0.822  -0.016  1.00  0.00    -0.066 NA
ENDROOT
BRANCH   1   6
ATOM      6  C5  MOL     1       2.229  -1.170  -2.388  1.00  0.00     0.179 C 
BRANCH   6   7
ATOM      7  C4  MOL     1       2.614  -2.582  -2.863  1.00  0.00     0.035 C 
BRANCH   7   8
ATOM      8  C3  MOL     1       3.518  -3.318  -1.869  1.00  0.00     0.002 C 
BRANCH   8   9
ATOM      9  C2  MOL     1       3.930  -4.688  -2.409  1.00  0.00    -0.003 C 
ATOM     10  C1  MOL     1       4.832  -5.424  -1.431  1.00  0.00     0.004 C 
ENDBRANCH   8   9
ENDBRANCH   7   8
ENDBRANCH   6   7
BRANCH   6  11
ATOM     11  C6  MOL     1       1.546  -0.380  -3.497  1.00  0.00     0.194 C 
ATOM     12  O2  MOL     1       0.996  -0.936  -4.450  1.00  0.00    -0.293 OA
BRANCH  11  13
ATOM     13  C7  MOL     1       1.495   1.133  -3.349  1.00  0.00     0.307 C 
BRANCH  13  14
ATOM     14  O1  MOL     1       0.524   1.419  -2.345  1.00  0.00    -0.479 OA
BRANCH  14  15
ATOM     15  C8  MOL     1      -0.057   2.657  -2.380  1.00  0.00     0.197 A 
ATOM     16  C9  MOL     1      -1.292   2.760  -1.734  1.00  0.00     0.203 A 
ATOM     17  C13 MOL     1       0.482   3.807  -2.959  1.00  0.00     0.203 A 
ATOM     18  F1  MOL     1      -1.812   1.685  -1.111  1.00  0.00    -0.199 F 
ATOM     19  C10 MOL     1      -1.986   3.967  -1.703  1.00  0.00     0.165 A 
ATOM     20  C12 MOL     1      -0.217   5.015  -2.916  1.00  0.00     0.165 A 
ATOM     21  F4  MOL     1       1.688   3.778  -3.543  1.00  0.00    -0.199 F 
ATOM     22  F2  MOL     1      -3.168   4.030  -1.073  1.00  0.00    -0.203 F 
ATOM     23  C11 MOL     1      -1.458   5.104  -2.296  1.00  0.00     0.085 A 
ATOM     24  F3  MOL     1       0.317   6.111  -3.470  1.00  0.00    -0.203 F 
ENDBRANCH  14  15
ENDBRANCH  13  14
ENDBRANCH  11  13
ENDBRANCH   6  11
ENDBRANCH   1   6
BRANCH   3  25
ATOM     25  C16 MOL     1      -1.621  -1.198   0.922  1.00  0.00     0.142 C 
ATOM     26  C22 MOL     1      -1.576  -2.039   2.212  1.00  0.00     0.087 C 
BRANCH  25  27
ATOM     27  C17 MOL     1      -2.801  -1.631  -0.021  1.00  0.00     0.057 C 
ATOM     28  C18 MOL     1      -2.842  -3.119  -0.404  1.00  0.00     0.010 C 
ATOM     29  C21 MOL     1      -4.230  -1.415   0.511  1.00  0.00     0.010 C 
ATOM     30  C19 MOL     1      -4.193  -3.262  -1.091  1.00  0.00     0.001 C 
ATOM     31  C20 MOL     1      -5.127  -2.338  -0.317  1.00  0.00     0.001 C 
ENDBRANCH  25  27
BRANCH  25  32
ATOM     32  N2  MOL     1      -1.902   0.263   1.301  1.00  0.00    -0.332 N 
ATOM     33  H27 MOL     1      -2.891   0.405   1.516  1.00  0.00     0.347 HD
ATOM     34  H28 MOL     1      -1.736   0.813   0.443  1.00  0.00     0.347 HD
BRANCH  32  35
ATOM     35  C23 MOL     1      -1.110   0.906   2.397  1.00  0.00     0.298 C 
BRANCH  35  36
ATOM     36  C24 MOL     1      -0.780   2.334   2.061  1.00  0.00     0.007 A 
ATOM     37  C25 MOL     1       0.468   2.655   1.507  1.00  0.00     0.020 A 
ATOM     38  C32 MOL     1      -1.722   3.352   2.228  1.00  0.00     0.012 A 
ATOM     39  C26 MOL     1       0.768   3.973   1.119  1.00  0.00     0.001 A 
ATOM     40  C31 MOL     1      -1.415   4.662   1.842  1.00  0.00     0.029 A 
ATOM     41  C27 MOL     1      -0.190   4.994   1.280  1.00  0.00     0.070 A 
ATOM     42  C30 MOL     1       2.004   4.314   0.555  1.00  0.00     0.012 A 
ATOM     43  N3  MOL     1       0.035   6.258   0.888  1.00  0.00    -0.256 NA
ATOM     44  C29 MOL     1       2.248   5.626   0.169  1.00  0.00     0.021 A 
ATOM     45  C28 MOL     1       1.241   6.554   0.353  1.00  0.00     0.112 A 
ENDBRANCH  35  36
ENDBRANCH  32  35
ENDBRANCH  25  32
ENDBRANCH   3  25
TORSDOF 13
