REMARK SMILES COCC[C@@H](C(=O)COc1c(F)c(F)cc(F)c1F)n1cc([C@@](C)([NH2+]Cc2ccn3nccc3n2)C2CCCC2)nn1
REMARK SMILES IDX 20 1 21 2 22 3 41 4 42 5 5 6 4 7 3 8 2 9 1 10 6 11 7 12 8 13
REMARK SMILES IDX 9 14 10 15 11 16 18 17 12 18 13 19 16 20 19 21 14 22 15 23
REMARK SMILES IDX 17 24 23 25 24 26 36 27 37 28 40 29 38 30 39 31 25 32 26 35
REMARK SMILES IDX 27 36 35 37 28 38 34 39 29 40 33 41 30 42 32 43 31 44
REMARK H PARENT 25 33 25 34
REMARK Flexibility Score: inf
ROOT
ATOM      1  N1  MOL     1       0.560  -2.303   0.483  1.00  0.00    -0.241 N 
ATOM      2  C13 MOL     1       0.122  -1.058   0.845  1.00  0.00     0.142 A 
ATOM      3  C14 MOL     1      -0.878  -0.770  -0.059  1.00  0.00     0.143 A 
ATOM      4  N6  MOL     1      -1.031  -1.843  -0.901  1.00  0.00    -0.129 NA
ATOM      5  N7  MOL     1      -0.143  -2.763  -0.569  1.00  0.00    -0.066 NA
ENDROOT
BRANCH   1   6
ATOM      6  C4  MOL     1       1.598  -3.103   1.118  1.00  0.00     0.182 C 
BRANCH   6   7
ATOM      7  C3  MOL     1       1.119  -4.517   1.476  1.00  0.00     0.064 C 
BRANCH   7   8
ATOM      8  C2  MOL     1       2.197  -5.351   2.161  1.00  0.00     0.162 C 
BRANCH   8   9
ATOM      9  O1  MOL     1       2.851  -4.543   3.138  1.00  0.00    -0.385 OA
ATOM     10  C1  MOL     1       3.850  -5.280   3.840  1.00  0.00     0.194 C 
ENDBRANCH   8   9
ENDBRANCH   7   8
ENDBRANCH   6   7
BRANCH   6  11
ATOM     11  C5  MOL     1       2.843  -3.125   0.248  1.00  0.00     0.194 C 
ATOM     12  O3  MOL     1       2.977  -3.909  -0.694  1.00  0.00    -0.293 OA
BRANCH  11  13
ATOM     13  C6  MOL     1       3.948  -2.151   0.622  1.00  0.00     0.307 C 
BRANCH  13  14
ATOM     14  O2  MOL     1       3.384  -0.846   0.651  1.00  0.00    -0.479 OA
BRANCH  14  15
ATOM     15  C7  MOL     1       4.194   0.190   1.028  1.00  0.00     0.197 A 
ATOM     16  C8  MOL     1       3.574   1.443   1.068  1.00  0.00     0.203 A 
ATOM     17  C12 MOL     1       5.548   0.119   1.366  1.00  0.00     0.203 A 
ATOM     18  F1  MOL     1       2.272   1.551   0.751  1.00  0.00    -0.199 F 
ATOM     19  C9  MOL     1       4.283   2.586   1.434  1.00  0.00     0.165 A 
ATOM     20  C11 MOL     1       6.250   1.269   1.734  1.00  0.00     0.165 A 
ATOM     21  F4  MOL     1       6.205  -1.050   1.349  1.00  0.00    -0.199 F 
ATOM     22  F2  MOL     1       3.663   3.773   1.466  1.00  0.00    -0.203 F 
ATOM     23  C10 MOL     1       5.627   2.509   1.771  1.00  0.00     0.085 A 
ATOM     24  F3  MOL     1       7.546   1.181   2.061  1.00  0.00    -0.203 F 
ENDBRANCH  14  15
ENDBRANCH  13  14
ENDBRANCH  11  13
ENDBRANCH   6  11
ENDBRANCH   1   6
BRANCH   3  25
ATOM     25  C15 MOL     1      -1.758   0.447  -0.228  1.00  0.00     0.142 C 
ATOM     26  C21 MOL     1      -0.949   1.753  -0.087  1.00  0.00     0.087 C 
BRANCH  25  27
ATOM     27  C16 MOL     1      -2.894   0.419   0.845  1.00  0.00     0.057 C 
ATOM     28  C17 MOL     1      -3.856   1.619   0.865  1.00  0.00     0.010 C 
ATOM     29  C20 MOL     1      -3.849  -0.783   0.803  1.00  0.00     0.010 C 
ATOM     30  C18 MOL     1      -5.152   1.109   1.507  1.00  0.00     0.001 C 
ATOM     31  C19 MOL     1      -4.938  -0.373   1.783  1.00  0.00     0.001 C 
ENDBRANCH  25  27
BRANCH  25  32
ATOM     32  N2  MOL     1      -2.385   0.448  -1.609  1.00  0.00    -0.331 N 
ATOM     33  H25 MOL     1      -3.010  -0.362  -1.685  1.00  0.00     0.347 HD
ATOM     34  H26 MOL     1      -2.973   1.290  -1.746  1.00  0.00     0.347 HD
BRANCH  32  35
ATOM     35  C22 MOL     1      -1.468   0.400  -2.815  1.00  0.00     0.318 C 
BRANCH  35  36
ATOM     36  C23 MOL     1      -1.788   1.573  -3.736  1.00  0.00     0.099 A 
ATOM     37  N3  MOL     1      -2.690   2.419  -3.311  1.00  0.00    -0.228 NA
ATOM     38  C28 MOL     1      -1.052   1.658  -5.036  1.00  0.00     0.050 A 
ATOM     39  C24 MOL     1      -2.962   3.471  -4.144  1.00  0.00     0.155 A 
ATOM     40  C27 MOL     1      -1.370   2.709  -5.804  1.00  0.00     0.117 A 
ATOM     41  C25 MOL     1      -3.822   4.539  -4.025  1.00  0.00     0.071 A 
ATOM     42  N5  MOL     1      -2.322   3.631  -5.382  1.00  0.00    -0.223 N 
ATOM     43  C26 MOL     1      -3.648   5.281  -5.205  1.00  0.00     0.138 A 
ATOM     44  N4  MOL     1      -2.751   4.736  -6.026  1.00  0.00    -0.175 NA
ENDBRANCH  35  36
ENDBRANCH  32  35
ENDBRANCH  25  32
ENDBRANCH   3  25
TORSDOF 13
