REMARK SMILES COCC[C@@H](C(=O)COc1c(F)c(F)cc(F)c1F)n1cc([C@@](C)([NH2+]Cc2ccc3ncccc3c2)C(C)C)nn1
REMARK SMILES IDX 20 1 21 2 22 3 40 4 41 5 5 6 4 7 3 8 2 9 1 10 6 11 7 12 8 13
REMARK SMILES IDX 9 14 10 15 11 16 18 17 12 18 13 19 16 20 19 21 14 22 15 23
REMARK SMILES IDX 17 24 23 25 24 26 37 27 38 28 39 29 25 30 26 33 27 34 36 35
REMARK SMILES IDX 28 36 35 37 29 38 30 39 34 40 31 41 33 42 32 43
REMARK H PARENT 25 31 25 32
REMARK Flexibility Score: inf
ROOT
ATOM      1  N1  MOL     1       0.672   1.224   2.129  1.00  0.00    -0.241 N 
ATOM      2  C13 MOL     1       0.884   2.059   1.071  1.00  0.00     0.142 A 
ATOM      3  C14 MOL     1       0.295   1.418   0.004  1.00  0.00     0.143 A 
ATOM      4  N4  MOL     1      -0.291   0.258   0.452  1.00  0.00    -0.129 NA
ATOM      5  N5  MOL     1      -0.053   0.148   1.750  1.00  0.00    -0.066 NA
ENDROOT
BRANCH   1   6
ATOM      6  C4  MOL     1       1.018   1.408   3.529  1.00  0.00     0.182 C 
BRANCH   6   7
ATOM      7  C3  MOL     1       2.446   1.924   3.783  1.00  0.00     0.064 C 
BRANCH   7   8
ATOM      8  C2  MOL     1       3.527   0.893   3.464  1.00  0.00     0.162 C 
BRANCH   8   9
ATOM      9  O1  MOL     1       3.538   0.628   2.060  1.00  0.00    -0.385 OA
ATOM     10  C1  MOL     1       4.619  -0.234   1.708  1.00  0.00     0.194 C 
ENDBRANCH   8   9
ENDBRANCH   7   8
ENDBRANCH   6   7
BRANCH   6  11
ATOM     11  C5  MOL     1      -0.019   2.342   4.144  1.00  0.00     0.194 C 
ATOM     12  O3  MOL     1       0.205   3.546   4.271  1.00  0.00    -0.293 OA
BRANCH  11  13
ATOM     13  C6  MOL     1      -1.371   1.724   4.486  1.00  0.00     0.307 C 
BRANCH  13  14
ATOM     14  O2  MOL     1      -2.324   2.234   3.560  1.00  0.00    -0.479 OA
BRANCH  14  15
ATOM     15  C7  MOL     1      -3.568   1.657   3.564  1.00  0.00     0.197 A 
ATOM     16  C8  MOL     1      -4.056   0.725   4.483  1.00  0.00     0.203 A 
ATOM     17  C12 MOL     1      -4.417   2.059   2.527  1.00  0.00     0.203 A 
ATOM     18  F1  MOL     1      -3.304   0.299   5.511  1.00  0.00    -0.199 F 
ATOM     19  C9  MOL     1      -5.343   0.197   4.345  1.00  0.00     0.165 A 
ATOM     20  C11 MOL     1      -5.705   1.532   2.402  1.00  0.00     0.165 A 
ATOM     21  F4  MOL     1      -3.979   2.936   1.610  1.00  0.00    -0.199 F 
ATOM     22  F2  MOL     1      -5.781  -0.728   5.211  1.00  0.00    -0.203 F 
ATOM     23  C10 MOL     1      -6.178   0.596   3.308  1.00  0.00     0.085 A 
ATOM     24  F3  MOL     1      -6.488   1.911   1.383  1.00  0.00    -0.203 F 
ENDBRANCH  14  15
ENDBRANCH  13  14
ENDBRANCH  11  13
ENDBRANCH   6  11
ENDBRANCH   1   6
BRANCH   3  25
ATOM     25  C15 MOL     1       0.223   1.779  -1.457  1.00  0.00     0.142 C 
ATOM     26  C19 MOL     1       1.577   2.308  -1.977  1.00  0.00     0.087 C 
BRANCH  25  27
ATOM     27  C16 MOL     1      -0.927   2.814  -1.760  1.00  0.00     0.051 C 
ATOM     28  C17 MOL     1      -2.341   2.293  -1.442  1.00  0.00     0.014 C 
ATOM     29  C18 MOL     1      -0.750   4.180  -1.072  1.00  0.00     0.014 C 
ENDBRANCH  25  27
BRANCH  25  30
ATOM     30  N2  MOL     1      -0.115   0.516  -2.260  1.00  0.00    -0.333 N 
ATOM     31  H23 MOL     1      -0.893   0.070  -1.750  1.00  0.00     0.347 HD
ATOM     32  H24 MOL     1      -0.474   0.761  -3.189  1.00  0.00     0.347 HD
BRANCH  30  33
ATOM     33  C20 MOL     1       0.922  -0.551  -2.392  1.00  0.00     0.298 C 
BRANCH  33  34
ATOM     34  C21 MOL     1       0.331  -1.784  -3.018  1.00  0.00     0.007 A 
ATOM     35  C22 MOL     1      -0.107  -2.854  -2.222  1.00  0.00     0.020 A 
ATOM     36  C29 MOL     1       0.186  -1.879  -4.407  1.00  0.00     0.012 A 
ATOM     37  C23 MOL     1      -0.668  -4.007  -2.808  1.00  0.00     0.001 A 
ATOM     38  C28 MOL     1      -0.373  -3.026  -4.979  1.00  0.00     0.029 A 
ATOM     39  C24 MOL     1      -0.803  -4.097  -4.209  1.00  0.00     0.070 A 
ATOM     40  C27 MOL     1      -1.098  -5.098  -2.039  1.00  0.00     0.012 A 
ATOM     41  N3  MOL     1      -1.328  -5.170  -4.818  1.00  0.00    -0.256 NA
ATOM     42  C26 MOL     1      -1.638  -6.216  -2.669  1.00  0.00     0.021 A 
ATOM     43  C25 MOL     1      -1.730  -6.205  -4.047  1.00  0.00     0.112 A 
ENDBRANCH  33  34
ENDBRANCH  30  33
ENDBRANCH  25  30
ENDBRANCH   3  25
TORSDOF 13
