REMARK SMILES CCCC[C@@H](C(=O)COc1c(F)c(F)cc(F)c1F)n1cc([C@@](C)([NH2+]Cc2ccc3ncccc3c2)C(C)C)nn1
REMARK SMILES IDX 20 1 21 2 22 3 40 4 41 5 5 6 4 7 3 8 2 9 1 10 6 11 7 12 8 13
REMARK SMILES IDX 9 14 10 15 11 16 18 17 12 18 13 19 16 20 19 21 14 22 15 23
REMARK SMILES IDX 17 24 23 25 24 26 37 27 38 28 39 29 25 30 26 33 27 34 36 35
REMARK SMILES IDX 28 36 35 37 29 38 30 39 34 40 31 41 33 42 32 43
REMARK H PARENT 25 31 25 32
REMARK Flexibility Score: inf
ROOT
ATOM      1  N1  MOL     1      -1.403  -0.726  -1.673  1.00  0.00    -0.241 N 
ATOM      2  C14 MOL     1      -0.182  -0.133  -1.861  1.00  0.00     0.142 A 
ATOM      3  C15 MOL     1       0.653  -0.808  -0.995  1.00  0.00     0.143 A 
ATOM      4  N4  MOL     1      -0.058  -1.823  -0.396  1.00  0.00    -0.129 NA
ATOM      5  N5  MOL     1      -1.307  -1.761  -0.820  1.00  0.00    -0.066 NA
ENDROOT
BRANCH   1   6
ATOM      6  C5  MOL     1      -2.697  -0.282  -2.172  1.00  0.00     0.179 C 
BRANCH   6   7
ATOM      7  C4  MOL     1      -3.383  -1.328  -3.070  1.00  0.00     0.035 C 
BRANCH   7   8
ATOM      8  C3  MOL     1      -2.677  -1.482  -4.421  1.00  0.00     0.002 C 
BRANCH   8   9
ATOM      9  C2  MOL     1      -3.458  -2.401  -5.363  1.00  0.00    -0.003 C 
ATOM     10  C1  MOL     1      -2.750  -2.550  -6.704  1.00  0.00     0.004 C 
ENDBRANCH   8   9
ENDBRANCH   7   8
ENDBRANCH   6   7
BRANCH   6  11
ATOM     11  C6  MOL     1      -3.591   0.136  -1.005  1.00  0.00     0.194 C 
ATOM     12  O2  MOL     1      -4.563  -0.532  -0.640  1.00  0.00    -0.293 OA
BRANCH  11  13
ATOM     13  C7  MOL     1      -3.286   1.480  -0.350  1.00  0.00     0.307 C 
BRANCH  13  14
ATOM     14  O1  MOL     1      -1.906   1.530   0.016  1.00  0.00    -0.479 OA
BRANCH  14  15
ATOM     15  C8  MOL     1      -1.579   2.525   0.894  1.00  0.00     0.197 A 
ATOM     16  C9  MOL     1      -0.696   2.197   1.926  1.00  0.00     0.203 A 
ATOM     17  C13 MOL     1      -1.995   3.855   0.762  1.00  0.00     0.203 A 
ATOM     18  F1  MOL     1      -0.201   0.946   2.033  1.00  0.00    -0.199 F 
ATOM     19  C10 MOL     1      -0.309   3.161   2.854  1.00  0.00     0.165 A 
ATOM     20  C12 MOL     1      -1.576   4.820   1.674  1.00  0.00     0.165 A 
ATOM     21  F4  MOL     1      -2.771   4.226  -0.270  1.00  0.00    -0.199 F 
ATOM     22  F2  MOL     1       0.514   2.820   3.858  1.00  0.00    -0.203 F 
ATOM     23  C11 MOL     1      -0.747   4.480   2.739  1.00  0.00     0.085 A 
ATOM     24  F3  MOL     1      -1.951   6.098   1.508  1.00  0.00    -0.203 F 
ENDBRANCH  14  15
ENDBRANCH  13  14
ENDBRANCH  11  13
ENDBRANCH   6  11
ENDBRANCH   1   6
BRANCH   3  25
ATOM     25  C16 MOL     1       2.098  -0.602  -0.584  1.00  0.00     0.142 C 
ATOM     26  C20 MOL     1       2.446   0.898  -0.522  1.00  0.00     0.087 C 
BRANCH  25  27
ATOM     27  C17 MOL     1       3.079  -1.395  -1.518  1.00  0.00     0.051 C 
ATOM     28  C18 MOL     1       3.123  -0.850  -2.958  1.00  0.00     0.014 C 
ATOM     29  C19 MOL     1       2.796  -2.907  -1.579  1.00  0.00     0.014 C 
ENDBRANCH  25  27
BRANCH  25  30
ATOM     30  N2  MOL     1       2.174  -1.137   0.850  1.00  0.00    -0.333 N 
ATOM     31  H25 MOL     1       1.519  -0.576   1.414  1.00  0.00     0.347 HD
ATOM     32  H26 MOL     1       1.698  -2.050   0.828  1.00  0.00     0.347 HD
BRANCH  30  33
ATOM     33  C21 MOL     1       3.451  -1.285   1.587  1.00  0.00     0.298 C 
BRANCH  33  34
ATOM     34  C22 MOL     1       3.795  -0.124   2.474  1.00  0.00     0.007 A 
ATOM     35  C23 MOL     1       3.070   0.114   3.654  1.00  0.00     0.020 A 
ATOM     36  C30 MOL     1       4.867   0.724   2.169  1.00  0.00     0.012 A 
ATOM     37  C24 MOL     1       3.421   1.171   4.515  1.00  0.00     0.001 A 
ATOM     38  C29 MOL     1       5.194   1.784   3.019  1.00  0.00     0.029 A 
ATOM     39  C25 MOL     1       4.499   2.021   4.195  1.00  0.00     0.070 A 
ATOM     40  C28 MOL     1       2.730   1.406   5.714  1.00  0.00     0.012 A 
ATOM     41  N3  MOL     1       4.875   3.035   4.986  1.00  0.00    -0.256 NA
ATOM     42  C27 MOL     1       3.130   2.448   6.545  1.00  0.00     0.021 A 
ATOM     43  C26 MOL     1       4.197   3.227   6.143  1.00  0.00     0.112 A 
ENDBRANCH  33  34
ENDBRANCH  30  33
ENDBRANCH  25  30
ENDBRANCH   3  25
TORSDOF 13
