REMARK SMILES CC(C)[C@](C)([NH2+]Cc1ccc2ncccc2c1)c1cn([C@@H](CCS(C)(=O)=O)C(=O)COc2c(F)c(F)cc(F)c2F)nn1
REMARK SMILES IDX 20 1 19 2 18 3 43 4 42 5 21 6 22 7 23 8 24 9 25 10 26 11
REMARK SMILES IDX 27 12 28 13 29 14 30 15 31 16 32 17 33 18 40 19 34 20 35 21
REMARK SMILES IDX 38 22 41 23 36 24 37 25 39 26 4 27 5 28 2 29 1 30 3 31 6 32
REMARK SMILES IDX 7 35 8 36 17 37 9 38 16 39 10 40 11 41 15 42 12 43 14 44
REMARK SMILES IDX 13 45
REMARK H PARENT 6 33 6 34
REMARK Flexibility Score: inf
ROOT
ATOM      1  N1  MOL     1       2.234  -1.229   0.844  1.00  0.00    -0.241 N 
ATOM      2  C13 MOL     1       1.525  -0.274   0.170  1.00  0.00     0.142 A 
ATOM      3  C14 MOL     1       2.093  -0.241  -1.088  1.00  0.00     0.143 A 
ATOM      4  N4  MOL     1       3.098  -1.171  -1.130  1.00  0.00    -0.129 NA
ATOM      5  N5  MOL     1       3.167  -1.771   0.048  1.00  0.00    -0.066 NA
ENDROOT
BRANCH   1   6
ATOM      6  C4  MOL     1       2.023  -1.711   2.196  1.00  0.00     0.180 C 
BRANCH   6   7
ATOM      7  C3  MOL     1       1.818  -3.241   2.286  1.00  0.00     0.052 C 
BRANCH   7   8
ATOM      8  C2  MOL     1       0.744  -3.860   1.393  1.00  0.00     0.139 C 
BRANCH   8   9
ATOM      9  S1  MOL     1      -0.858  -3.092   1.539  1.00  0.00     0.147 S 
ATOM     10  C1  MOL     1      -1.995  -4.396   1.130  1.00  0.00     0.158 C 
ATOM     11  O3  MOL     1      -1.060  -2.722   2.923  1.00  0.00    -0.229 OA
ATOM     12  O4  MOL     1      -0.945  -2.072   0.505  1.00  0.00    -0.229 OA
ENDBRANCH   8   9
ENDBRANCH   7   8
ENDBRANCH   6   7
BRANCH   6  13
ATOM     13  C5  MOL     1       3.190  -1.282   3.084  1.00  0.00     0.194 C 
ATOM     14  O2  MOL     1       4.039  -2.089   3.478  1.00  0.00    -0.293 OA
BRANCH  13  15
ATOM     15  C6  MOL     1       3.285   0.178   3.518  1.00  0.00     0.307 C 
BRANCH  15  16
ATOM     16  O1  MOL     1       2.280   0.987   2.924  1.00  0.00    -0.479 OA
BRANCH  16  17
ATOM     17  C7  MOL     1       2.237   2.311   3.274  1.00  0.00     0.197 A 
ATOM     18  C8  MOL     1       1.242   3.061   2.638  1.00  0.00     0.203 A 
ATOM     19  C12 MOL     1       3.074   2.970   4.179  1.00  0.00     0.203 A 
ATOM     20  F1  MOL     1       0.433   2.470   1.741  1.00  0.00    -0.199 F 
ATOM     21  C9  MOL     1       1.087   4.421   2.897  1.00  0.00     0.165 A 
ATOM     22  C11 MOL     1       2.908   4.333   4.436  1.00  0.00     0.165 A 
ATOM     23  F4  MOL     1       4.058   2.319   4.814  1.00  0.00    -0.199 F 
ATOM     24  F2  MOL     1       0.136   5.115   2.258  1.00  0.00    -0.203 F 
ATOM     25  C10 MOL     1       1.916   5.069   3.800  1.00  0.00     0.085 A 
ATOM     26  F3  MOL     1       3.720   4.949   5.305  1.00  0.00    -0.203 F 
ENDBRANCH  16  17
ENDBRANCH  15  16
ENDBRANCH  13  15
ENDBRANCH   6  13
ENDBRANCH   1   6
BRANCH   3  27
ATOM     27  C15 MOL     1       1.755   0.591  -2.304  1.00  0.00     0.142 C 
ATOM     28  C19 MOL     1       2.143  -0.144  -3.609  1.00  0.00     0.087 C 
BRANCH  27  29
ATOM     29  C16 MOL     1       2.454   2.006  -2.268  1.00  0.00     0.051 C 
ATOM     30  C17 MOL     1       3.991   1.940  -2.299  1.00  0.00     0.014 C 
ATOM     31  C18 MOL     1       2.043   2.894  -1.083  1.00  0.00     0.014 C 
ENDBRANCH  27  29
BRANCH  27  32
ATOM     32  N2  MOL     1       0.247   0.860  -2.387  1.00  0.00    -0.333 N 
ATOM     33  H23 MOL     1       0.061   1.552  -3.121  1.00  0.00     0.347 HD
ATOM     34  H24 MOL     1      -0.051   1.301  -1.509  1.00  0.00     0.347 HD
BRANCH  32  35
ATOM     35  C20 MOL     1      -0.675  -0.298  -2.599  1.00  0.00     0.298 C 
BRANCH  35  36
ATOM     36  C21 MOL     1      -2.104   0.169  -2.561  1.00  0.00     0.007 A 
ATOM     37  C22 MOL     1      -2.794   0.265  -1.345  1.00  0.00     0.020 A 
ATOM     38  C29 MOL     1      -2.753   0.573  -3.732  1.00  0.00     0.012 A 
ATOM     39  C23 MOL     1      -4.116   0.748  -1.302  1.00  0.00     0.001 A 
ATOM     40  C28 MOL     1      -4.067   1.051  -3.681  1.00  0.00     0.029 A 
ATOM     41  C24 MOL     1      -4.765   1.151  -2.487  1.00  0.00     0.070 A 
ATOM     42  C27 MOL     1      -4.830   0.848  -0.099  1.00  0.00     0.012 A 
ATOM     43  N3  MOL     1      -6.019   1.626  -2.498  1.00  0.00    -0.256 NA
ATOM     44  C26 MOL     1      -6.131   1.335  -0.107  1.00  0.00     0.021 A 
ATOM     45  C25 MOL     1      -6.677   1.708  -1.320  1.00  0.00     0.112 A 
ENDBRANCH  35  36
ENDBRANCH  32  35
ENDBRANCH  27  32
ENDBRANCH   3  27
TORSDOF 13
