REMARK SMILES CC(C)[C@](C)([NH2+]Cc1ccc2occc2c1)c1cn([C@@H](CCS(C)(=O)=O)C(=O)COc2c(F)c(F)cc(F)c2F)nn1
REMARK SMILES IDX 19 1 18 2 17 3 42 4 41 5 20 6 21 7 22 8 23 9 24 10 25 11
REMARK SMILES IDX 26 12 27 13 28 14 29 15 30 16 31 17 32 18 39 19 33 20 34 21
REMARK SMILES IDX 37 22 40 23 35 24 36 25 38 26 4 27 5 28 2 29 1 30 3 31 6 32
REMARK SMILES IDX 7 35 8 36 16 37 9 38 15 39 10 40 11 41 14 42 12 43 13 44
REMARK H PARENT 6 33 6 34
REMARK Flexibility Score: inf
ROOT
ATOM      1  N1  MOL     1      -0.838   0.488  -2.379  1.00  0.00    -0.241 N 
ATOM      2  C13 MOL     1      -0.164  -0.038  -1.314  1.00  0.00     0.142 A 
ATOM      3  C14 MOL     1       0.501   1.041  -0.771  1.00  0.00     0.143 A 
ATOM      4  N3  MOL     1       0.319   2.118  -1.601  1.00  0.00    -0.129 NA
ATOM      5  N4  MOL     1      -0.503   1.769  -2.578  1.00  0.00    -0.066 NA
ENDROOT
BRANCH   1   6
ATOM      6  C4  MOL     1      -1.972  -0.118  -3.050  1.00  0.00     0.180 C 
BRANCH   6   7
ATOM      7  C3  MOL     1      -3.301   0.622  -2.757  1.00  0.00     0.052 C 
BRANCH   7   8
ATOM      8  C2  MOL     1      -3.525   1.220  -1.357  1.00  0.00     0.139 C 
BRANCH   8   9
ATOM      9  S1  MOL     1      -3.320   0.096   0.021  1.00  0.00     0.147 S 
ATOM     10  C1  MOL     1      -4.792   0.322   0.993  1.00  0.00     0.158 C 
ATOM     11  O4  MOL     1      -2.181   0.534   0.823  1.00  0.00    -0.229 OA
ATOM     12  O5  MOL     1      -3.321  -1.259  -0.498  1.00  0.00    -0.229 OA
ENDBRANCH   8   9
ENDBRANCH   7   8
ENDBRANCH   6   7
BRANCH   6  13
ATOM     13  C5  MOL     1      -1.696  -0.267  -4.546  1.00  0.00     0.194 C 
ATOM     14  O2  MOL     1      -2.394   0.298  -5.392  1.00  0.00    -0.293 OA
BRANCH  13  15
ATOM     15  C6  MOL     1      -0.616  -1.261  -4.982  1.00  0.00     0.307 C 
BRANCH  15  16
ATOM     16  O1  MOL     1       0.429  -1.353  -4.024  1.00  0.00    -0.479 OA
BRANCH  16  17
ATOM     17  C7  MOL     1       1.456  -2.225  -4.259  1.00  0.00     0.197 A 
ATOM     18  C8  MOL     1       1.627  -3.037  -5.381  1.00  0.00     0.203 A 
ATOM     19  C12 MOL     1       2.418  -2.300  -3.245  1.00  0.00     0.203 A 
ATOM     20  F1  MOL     1       0.733  -3.033  -6.379  1.00  0.00    -0.199 F 
ATOM     21  C9  MOL     1       2.725  -3.897  -5.476  1.00  0.00     0.165 A 
ATOM     22  C11 MOL     1       3.509  -3.163  -3.346  1.00  0.00     0.165 A 
ATOM     23  F4  MOL     1       2.292  -1.545  -2.139  1.00  0.00    -0.199 F 
ATOM     24  F2  MOL     1       2.859  -4.691  -6.548  1.00  0.00    -0.203 F 
ATOM     25  C10 MOL     1       3.672  -3.970  -4.461  1.00  0.00     0.085 A 
ATOM     26  F3  MOL     1       4.396  -3.232  -2.345  1.00  0.00    -0.203 F 
ENDBRANCH  16  17
ENDBRANCH  15  16
ENDBRANCH  13  15
ENDBRANCH   6  13
ENDBRANCH   1   6
BRANCH   3  27
ATOM     27  C15 MOL     1       1.227   1.188   0.551  1.00  0.00     0.142 C 
ATOM     28  C19 MOL     1       1.054   2.643   1.064  1.00  0.00     0.087 C 
BRANCH  27  29
ATOM     29  C16 MOL     1       2.740   0.789   0.451  1.00  0.00     0.051 C 
ATOM     30  C17 MOL     1       3.485   1.491  -0.699  1.00  0.00     0.014 C 
ATOM     31  C18 MOL     1       3.533   1.042   1.744  1.00  0.00     0.014 C 
ENDBRANCH  27  29
BRANCH  27  32
ATOM     32  N2  MOL     1       0.515   0.337   1.620  1.00  0.00    -0.333 N 
ATOM     33  H23 MOL     1       0.626   0.765   2.545  1.00  0.00     0.347 HD
ATOM     34  H24 MOL     1      -0.508   0.419   1.424  1.00  0.00     0.347 HD
BRANCH  32  35
ATOM     35  C20 MOL     1       0.829  -1.113   1.754  1.00  0.00     0.298 C 
BRANCH  35  36
ATOM     36  C21 MOL     1      -0.146  -1.809   2.667  1.00  0.00     0.007 A 
ATOM     37  C22 MOL     1       0.060  -1.793   4.063  1.00  0.00     0.021 A 
ATOM     38  C28 MOL     1      -1.283  -2.441   2.133  1.00  0.00     0.013 A 
ATOM     39  C23 MOL     1      -0.880  -2.422   4.901  1.00  0.00     0.021 A 
ATOM     40  C27 MOL     1      -2.231  -3.062   2.954  1.00  0.00     0.048 A 
ATOM     41  C24 MOL     1      -1.987  -3.028   4.322  1.00  0.00     0.133 A 
ATOM     42  C26 MOL     1      -1.018  -2.629   6.298  1.00  0.00     0.050 A 
ATOM     43  O3  MOL     1      -2.786  -3.572   5.280  1.00  0.00    -0.464 OA
ATOM     44  C25 MOL     1      -2.192  -3.327   6.476  1.00  0.00     0.196 A 
ENDBRANCH  35  36
ENDBRANCH  32  35
ENDBRANCH  27  32
ENDBRANCH   3  27
TORSDOF 13
