REMARK SMILES C[C@@H](C=O)n1cc([C@@H]([NH2+]Cc2ccc3c(c2)OCO3)C2CCCCC2)nn1
REMARK SMILES IDX 8 1 7 2 5 3 6 4 27 5 26 6 2 7 1 8 3 9 4 10 9 11 10 14 11 15
REMARK SMILES IDX 12 16 16 17 13 18 15 19 14 20 17 21 19 22 18 23 20 24 21 25
REMARK SMILES IDX 25 26 22 27 24 28 23 29
REMARK H PARENT 9 12 9 13
REMARK Flexibility Score: inf
ROOT
ATOM      1  C6  MOL     1      -0.792   0.635   0.368  1.00  0.00     0.239 C 
ENDROOT
BRANCH   1   2
ATOM      2  C5  MOL     1      -2.006  -0.159   0.734  1.00  0.00     0.140 A 
ATOM      3  N1  MOL     1      -3.701  -1.147   1.651  1.00  0.00    -0.242 N 
ATOM      4  C4  MOL     1      -2.562  -0.453   1.958  1.00  0.00     0.141 A 
ATOM      5  N4  MOL     1      -3.782  -1.357   0.321  1.00  0.00    -0.066 NA
ATOM      6  N3  MOL     1      -2.765  -0.736  -0.252  1.00  0.00    -0.129 NA
BRANCH   3   7
ATOM      7  C2  MOL     1      -4.721  -1.689   2.535  1.00  0.00     0.169 C 
ATOM      8  C1  MOL     1      -4.190  -2.842   3.378  1.00  0.00     0.041 C 
BRANCH   7   9
ATOM      9  C3  MOL     1      -5.329  -0.633   3.429  1.00  0.00     0.250 C 
ATOM     10  O1  MOL     1      -4.884   0.501   3.586  1.00  0.00    -0.301 OA
ENDBRANCH   7   9
ENDBRANCH   3   7
ENDBRANCH   1   2
BRANCH   1  11
ATOM     11  N2  MOL     1      -0.364   0.307  -1.044  1.00  0.00    -0.335 N 
ATOM     12  H8  MOL     1       0.172   1.073  -1.458  1.00  0.00     0.347 HD
ATOM     13  H9  MOL     1      -1.236   0.222  -1.587  1.00  0.00     0.347 HD
BRANCH  11  14
ATOM     14  C7  MOL     1       0.389  -0.968  -1.217  1.00  0.00     0.298 C 
BRANCH  14  15
ATOM     15  C8  MOL     1       1.806  -0.867  -0.723  1.00  0.00     0.010 A 
ATOM     16  C9  MOL     1       2.769  -0.133  -1.458  1.00  0.00     0.013 A 
ATOM     17  C13 MOL     1       2.177  -1.471   0.491  1.00  0.00     0.060 A 
ATOM     18  C10 MOL     1       4.080   0.004  -0.989  1.00  0.00     0.051 A 
ATOM     19  C12 MOL     1       3.477  -1.315   0.926  1.00  0.00     0.166 A 
ATOM     20  C11 MOL     1       4.402  -0.598   0.208  1.00  0.00     0.165 A 
ATOM     21  O2  MOL     1       3.991  -1.823   2.076  1.00  0.00    -0.454 OA
ATOM     22  O3  MOL     1       5.617  -0.566   0.814  1.00  0.00    -0.454 OA
ATOM     23  C14 MOL     1       5.361  -1.367   1.988  1.00  0.00     0.468 C 
ENDBRANCH  14  15
ENDBRANCH  11  14
ENDBRANCH   1  11
BRANCH   1  24
ATOM     24  C15 MOL     1      -1.023   2.163   0.519  1.00  0.00     0.054 C 
ATOM     25  C16 MOL     1      -2.021   2.750  -0.499  1.00  0.00     0.010 C 
ATOM     26  C20 MOL     1       0.305   2.946   0.479  1.00  0.00     0.010 C 
ATOM     27  C17 MOL     1      -2.234   4.247  -0.277  1.00  0.00     0.001 C 
ATOM     28  C19 MOL     1       0.084   4.441   0.698  1.00  0.00     0.001 C 
ATOM     29  C18 MOL     1      -0.916   5.014  -0.301  1.00  0.00     0.000 C 
ENDBRANCH   1  24
TORSDOF 7
