REMARK SMILES O=C[C@H](c1ccccc1)n1cc([C@H](C2CCCCC2)[N@@H+]2CCc3ccccc3C2)nn1
REMARK SMILES IDX 10 1 11 2 12 3 30 4 31 5 3 6 2 7 1 8 4 9 5 10 9 11 6 12 8 13
REMARK SMILES IDX 7 14 13 15 14 16 15 17 19 18 16 19 18 20 17 21 20 22 21 23
REMARK SMILES IDX 29 24 22 26 28 27 23 28 27 29 24 30 26 31 25 32
REMARK H PARENT 20 25
REMARK Flexibility Score: inf
ROOT
ATOM      1  N1  MOL     1       0.457  -2.048  -0.547  1.00  0.00    -0.237 N 
ATOM      2  C9  MOL     1       0.452  -1.043   0.384  1.00  0.00     0.142 A 
ATOM      3  C10 MOL     1       0.197   0.096  -0.350  1.00  0.00     0.140 A 
ATOM      4  N3  MOL     1       0.087  -0.242  -1.675  1.00  0.00    -0.129 NA
ATOM      5  N4  MOL     1       0.271  -1.546  -1.786  1.00  0.00    -0.066 NA
ENDROOT
BRANCH   1   6
ATOM      6  C2  MOL     1       0.666  -3.477  -0.319  1.00  0.00     0.202 C 
BRANCH   6   7
ATOM      7  C1  MOL     1       1.639  -4.039  -1.323  1.00  0.00     0.256 C 
ATOM      8  O1  MOL     1       2.848  -4.126  -1.103  1.00  0.00    -0.301 OA
ENDBRANCH   6   7
BRANCH   6   9
ATOM      9  C3  MOL     1      -0.647  -4.237  -0.259  1.00  0.00    -0.016 A 
ATOM     10  C4  MOL     1      -1.559  -4.237  -1.330  1.00  0.00     0.006 A 
ATOM     11  C8  MOL     1      -0.965  -4.985   0.889  1.00  0.00     0.006 A 
ATOM     12  C5  MOL     1      -2.754  -4.954  -1.249  1.00  0.00     0.000 A 
ATOM     13  C7  MOL     1      -2.162  -5.700   0.966  1.00  0.00     0.000 A 
ATOM     14  C6  MOL     1      -3.055  -5.684  -0.102  1.00  0.00     0.000 A 
ENDBRANCH   6   9
ENDBRANCH   1   6
BRANCH   3  15
ATOM     15  C11 MOL     1       0.086   1.535   0.070  1.00  0.00     0.241 C 
BRANCH  15  16
ATOM     16  C12 MOL     1      -1.394   1.955   0.339  1.00  0.00     0.054 C 
ATOM     17  C13 MOL     1      -2.300   1.942  -0.907  1.00  0.00     0.010 C 
ATOM     18  C17 MOL     1      -2.039   1.112   1.463  1.00  0.00     0.010 C 
ATOM     19  C14 MOL     1      -3.712   2.426  -0.576  1.00  0.00     0.001 C 
ATOM     20  C16 MOL     1      -3.451   1.595   1.790  1.00  0.00     0.001 C 
ATOM     21  C15 MOL     1      -4.339   1.611   0.550  1.00  0.00     0.000 C 
ENDBRANCH  15  16
BRANCH  15  22
ATOM     22  N2  MOL     1       0.762   2.444  -0.982  1.00  0.00    -0.323 N 
ATOM     23  C18 MOL     1       2.233   2.126  -1.228  1.00  0.00     0.267 C 
ATOM     24  C26 MOL     1       0.654   3.930  -0.759  1.00  0.00     0.299 C 
ATOM     25  H21 MOL     1       0.283   2.218  -1.863  1.00  0.00     0.348 HD
ATOM     26  C19 MOL     1       3.089   2.440   0.003  1.00  0.00     0.097 C 
ATOM     27  C25 MOL     1       1.529   4.417   0.361  1.00  0.00     0.010 A 
ATOM     28  C20 MOL     1       2.715   3.731   0.692  1.00  0.00    -0.034 A 
ATOM     29  C24 MOL     1       1.200   5.596   1.044  1.00  0.00     0.010 A 
ATOM     30  C21 MOL     1       3.536   4.224   1.715  1.00  0.00     0.004 A 
ATOM     31  C23 MOL     1       2.027   6.077   2.058  1.00  0.00     0.001 A 
ATOM     32  C22 MOL     1       3.193   5.392   2.393  1.00  0.00     0.000 A 
ENDBRANCH  15  22
ENDBRANCH   3  15
TORSDOF 6
