REMARK SMILES O=C[C@H](Cc1c[nH]c2ccccc12)n1cc([C@H](C2CCCCC2)[N@@H+]2CCc3ccccc3C2)nn1
REMARK SMILES IDX 14 1 15 2 16 3 34 4 35 5 3 6 2 7 1 8 4 9 5 10 6 11 13 12
REMARK SMILES IDX 7 13 8 14 12 15 9 17 11 18 10 19 17 20 18 21 19 22 23 23
REMARK SMILES IDX 20 24 22 25 21 26 24 27 25 28 33 29 26 31 32 32 27 33 31 34
REMARK SMILES IDX 28 35 30 36 29 37
REMARK H PARENT 7 16 24 30
REMARK Flexibility Score: inf
ROOT
ATOM      1  N2  MOL     1       1.884   0.029   1.453  1.00  0.00    -0.241 N 
ATOM      2  C12 MOL     1       1.495  -0.376   0.207  1.00  0.00     0.141 A 
ATOM      3  C13 MOL     1       0.137  -0.572   0.332  1.00  0.00     0.140 A 
ATOM      4  N4  MOL     1      -0.246  -0.279   1.616  1.00  0.00    -0.129 NA
ATOM      5  N5  MOL     1       0.832   0.078   2.294  1.00  0.00    -0.066 NA
ENDROOT
BRANCH   1   6
ATOM      6  C2  MOL     1       3.226   0.329   1.917  1.00  0.00     0.177 C 
BRANCH   6   7
ATOM      7  C1  MOL     1       3.664  -0.714   2.920  1.00  0.00     0.251 C 
ATOM      8  O1  MOL     1       3.416  -1.913   2.805  1.00  0.00    -0.301 OA
ENDBRANCH   6   7
BRANCH   6   9
ATOM      9  C3  MOL     1       3.355   1.744   2.490  1.00  0.00     0.073 C 
BRANCH   9  10
ATOM     10  C4  MOL     1       3.252   2.796   1.427  1.00  0.00    -0.020 A 
ATOM     11  C5  MOL     1       4.282   3.245   0.623  1.00  0.00     0.087 A 
ATOM     12  C11 MOL     1       2.079   3.523   1.044  1.00  0.00     0.003 A 
ATOM     13  N1  MOL     1       3.785   4.204  -0.219  1.00  0.00    -0.361 N 
ATOM     14  C6  MOL     1       2.441   4.383   0.006  1.00  0.00     0.046 A 
ATOM     15  C10 MOL     1       0.739   3.534   1.485  1.00  0.00     0.010 A 
ATOM     16  H6  MOL     1       4.324   4.721  -0.902  1.00  0.00     0.166 HD
ATOM     17  C7  MOL     1       1.533   5.247  -0.616  1.00  0.00     0.026 A 
ATOM     18  C9  MOL     1      -0.181   4.397   0.878  1.00  0.00     0.001 A 
ATOM     19  C8  MOL     1       0.212   5.239  -0.158  1.00  0.00     0.002 A 
ENDBRANCH   9  10
ENDBRANCH   6   9
ENDBRANCH   1   6
BRANCH   3  20
ATOM     20  C14 MOL     1      -0.865  -1.120  -0.640  1.00  0.00     0.241 C 
BRANCH  20  21
ATOM     21  C15 MOL     1      -1.717  -0.001  -1.314  1.00  0.00     0.054 C 
ATOM     22  C16 MOL     1      -2.647   0.770  -0.359  1.00  0.00     0.010 C 
ATOM     23  C20 MOL     1      -0.836   0.998  -2.096  1.00  0.00     0.010 C 
ATOM     24  C17 MOL     1      -3.504   1.784  -1.118  1.00  0.00     0.001 C 
ATOM     25  C19 MOL     1      -1.687   2.011  -2.861  1.00  0.00     0.001 C 
ATOM     26  C18 MOL     1      -2.653   2.748  -1.939  1.00  0.00     0.000 C 
ENDBRANCH  20  21
BRANCH  20  27
ATOM     27  N3  MOL     1      -1.745  -2.173   0.072  1.00  0.00    -0.323 N 
ATOM     28  C21 MOL     1      -0.955  -3.324   0.689  1.00  0.00     0.267 C 
ATOM     29  C29 MOL     1      -2.866  -2.773  -0.734  1.00  0.00     0.299 C 
ATOM     30  H24 MOL     1      -2.153  -1.668   0.869  1.00  0.00     0.348 HD
ATOM     31  C22 MOL     1      -0.292  -4.187  -0.388  1.00  0.00     0.097 C 
ATOM     32  C28 MOL     1      -2.385  -3.752  -1.768  1.00  0.00     0.010 A 
ATOM     33  C23 MOL     1      -1.180  -4.457  -1.580  1.00  0.00    -0.034 A 
ATOM     34  C27 MOL     1      -3.171  -4.015  -2.900  1.00  0.00     0.010 A 
ATOM     35  C24 MOL     1      -0.768  -5.389  -2.542  1.00  0.00     0.004 A 
ATOM     36  C26 MOL     1      -2.752  -4.949  -3.846  1.00  0.00     0.001 A 
ATOM     37  C25 MOL     1      -1.552  -5.633  -3.668  1.00  0.00     0.000 A 
ENDBRANCH  20  27
ENDBRANCH   3  20
TORSDOF 7
