REMARK SMILES CC(C)C[C@@H](C=O)n1cc([C@@H]([NH2+]Cc2ccc3c(c2)OCO3)C2CCCCC2)nn1
REMARK SMILES IDX 8 1 9 2 10 3 29 4 30 5 5 6 4 7 2 8 1 9 3 10 6 11 7 12 11 13
REMARK SMILES IDX 12 14 13 17 14 18 15 19 19 20 16 21 18 22 17 23 20 24 22 25
REMARK SMILES IDX 21 26 23 27 24 28 28 29 25 30 27 31 26 32
REMARK H PARENT 12 15 12 16
REMARK Flexibility Score: inf
ROOT
ATOM      1  N1  MOL     1      -0.759   2.395   1.096  1.00  0.00    -0.242 N 
ATOM      2  C7  MOL     1       0.153   1.552   0.520  1.00  0.00     0.141 A 
ATOM      3  C8  MOL     1      -0.601   0.490   0.076  1.00  0.00     0.140 A 
ATOM      4  N3  MOL     1      -1.915   0.706   0.407  1.00  0.00    -0.129 NA
ATOM      5  N4  MOL     1      -1.999   1.873   1.023  1.00  0.00    -0.066 NA
ENDROOT
BRANCH   1   6
ATOM      6  C5  MOL     1      -0.553   3.705   1.678  1.00  0.00     0.172 C 
BRANCH   6   7
ATOM      7  C4  MOL     1       0.554   3.772   2.748  1.00  0.00     0.038 C 
BRANCH   7   8
ATOM      8  C2  MOL     1       0.138   3.272   4.149  1.00  0.00    -0.015 C 
ATOM      9  C1  MOL     1       1.238   3.615   5.160  1.00  0.00     0.007 C 
ATOM     10  C3  MOL     1      -0.141   1.770   4.200  1.00  0.00     0.007 C 
ENDBRANCH   7   8
ENDBRANCH   6   7
BRANCH   6  11
ATOM     11  C6  MOL     1      -0.260   4.668   0.549  1.00  0.00     0.251 C 
ATOM     12  O1  MOL     1       0.859   4.836   0.072  1.00  0.00    -0.301 OA
ENDBRANCH   6  11
ENDBRANCH   1   6
BRANCH   3  13
ATOM     13  C9  MOL     1      -0.208  -0.777  -0.612  1.00  0.00     0.239 C 
BRANCH  13  14
ATOM     14  N2  MOL     1      -1.128  -1.908  -0.196  1.00  0.00    -0.335 N 
ATOM     15  H14 MOL     1      -1.008  -2.709  -0.823  1.00  0.00     0.347 HD
ATOM     16  H15 MOL     1      -2.089  -1.561  -0.318  1.00  0.00     0.347 HD
BRANCH  14  17
ATOM     17  C10 MOL     1      -1.012  -2.372   1.220  1.00  0.00     0.298 C 
BRANCH  17  18
ATOM     18  C11 MOL     1       0.320  -2.995   1.530  1.00  0.00     0.010 A 
ATOM     19  C12 MOL     1       1.244  -2.320   2.364  1.00  0.00     0.013 A 
ATOM     20  C16 MOL     1       0.669  -4.238   0.975  1.00  0.00     0.060 A 
ATOM     21  C13 MOL     1       2.502  -2.869   2.636  1.00  0.00     0.051 A 
ATOM     22  C15 MOL     1       1.918  -4.750   1.263  1.00  0.00     0.166 A 
ATOM     23  C14 MOL     1       2.808  -4.085   2.069  1.00  0.00     0.165 A 
ATOM     24  O2  MOL     1       2.412  -5.930   0.805  1.00  0.00    -0.454 OA
ATOM     25  O3  MOL     1       3.975  -4.763   2.221  1.00  0.00    -0.454 OA
ATOM     26  C17 MOL     1       3.711  -5.949   1.441  1.00  0.00     0.468 C 
ENDBRANCH  17  18
ENDBRANCH  14  17
ENDBRANCH  13  14
BRANCH  13  27
ATOM     27  C18 MOL     1      -0.216  -0.692  -2.163  1.00  0.00     0.054 C 
ATOM     28  C19 MOL     1       0.873   0.267  -2.685  1.00  0.00     0.010 C 
ATOM     29  C23 MOL     1      -1.583  -0.325  -2.773  1.00  0.00     0.010 C 
ATOM     30  C20 MOL     1       0.922   0.287  -4.211  1.00  0.00     0.001 C 
ATOM     31  C22 MOL     1      -1.529  -0.294  -4.301  1.00  0.00     0.001 C 
ATOM     32  C21 MOL     1      -0.435   0.638  -4.810  1.00  0.00     0.000 C 
ENDBRANCH  13  27
ENDBRANCH   3  13
TORSDOF 9
