REMARK SMILES O=C[C@H](Cc1c[nH]c[nH+]1)n1cc([C@H](C2CCCCC2)[N@H+]2CCc3ccccc3C2)nn1
REMARK SMILES IDX 10 1 11 2 12 3 30 4 31 5 3 6 2 7 1 8 4 9 5 10 6 11 9 12 7 13
REMARK SMILES IDX 8 14 13 17 14 18 15 19 19 20 16 21 18 22 17 23 20 24 21 25
REMARK SMILES IDX 29 26 22 28 28 29 23 30 27 31 24 32 26 33 25 34
REMARK H PARENT 9 15 7 16 20 27
REMARK Flexibility Score: inf
ROOT
ATOM      1  N3  MOL     1      -1.251   1.056   2.200  1.00  0.00    -0.241 N 
ATOM      2  C7  MOL     1      -0.661   1.757   1.183  1.00  0.00     0.141 A 
ATOM      3  C8  MOL     1       0.287   0.894   0.668  1.00  0.00     0.140 A 
ATOM      4  N5  MOL     1       0.202  -0.292   1.359  1.00  0.00    -0.129 NA
ATOM      5  N6  MOL     1      -0.752  -0.188   2.269  1.00  0.00    -0.066 NA
ENDROOT
BRANCH   1   6
ATOM      6  C2  MOL     1      -2.224   1.521   3.173  1.00  0.00     0.180 C 
BRANCH   6   7
ATOM      7  C1  MOL     1      -1.533   1.798   4.494  1.00  0.00     0.251 C 
ATOM      8  O1  MOL     1      -1.830   1.252   5.557  1.00  0.00    -0.301 OA
ENDBRANCH   6   7
BRANCH   6   9
ATOM      9  C3  MOL     1      -3.489   0.651   3.287  1.00  0.00     0.119 C 
BRANCH   9  10
ATOM     10  C4  MOL     1      -3.314  -0.732   3.817  1.00  0.00     0.142 A 
ATOM     11  C5  MOL     1      -3.617  -1.967   3.291  1.00  0.00     0.244 A 
ATOM     12  N2  MOL     1      -2.819  -1.008   5.084  1.00  0.00    -0.248 N 
ATOM     13  N1  MOL     1      -3.271  -2.910   4.231  1.00  0.00    -0.250 N 
ATOM     14  C6  MOL     1      -2.793  -2.319   5.330  1.00  0.00     0.399 A 
ATOM     15  H8  MOL     1      -2.474  -0.291   5.738  1.00  0.00     0.311 HD
ATOM     16  H6  MOL     1      -3.376  -3.918   4.129  1.00  0.00     0.311 HD
ENDBRANCH   9  10
ENDBRANCH   6   9
ENDBRANCH   1   6
BRANCH   3  17
ATOM     17  C9  MOL     1       1.349   1.062  -0.395  1.00  0.00     0.241 C 
BRANCH  17  18
ATOM     18  C10 MOL     1       1.325   2.438  -1.131  1.00  0.00     0.054 C 
ATOM     19  C11 MOL     1       2.692   2.776  -1.765  1.00  0.00     0.010 C 
ATOM     20  C15 MOL     1       0.214   2.601  -2.181  1.00  0.00     0.010 C 
ATOM     21  C12 MOL     1       2.697   4.179  -2.372  1.00  0.00     0.001 C 
ATOM     22  C14 MOL     1       0.211   4.010  -2.775  1.00  0.00     0.001 C 
ATOM     23  C13 MOL     1       1.566   4.366  -3.378  1.00  0.00     0.000 C 
ENDBRANCH  17  18
BRANCH  17  24
ATOM     24  N4  MOL     1       1.498  -0.104  -1.381  1.00  0.00    -0.323 N 
ATOM     25  C16 MOL     1       2.467  -1.167  -0.887  1.00  0.00     0.267 C 
ATOM     26  C24 MOL     1       0.212  -0.774  -1.809  1.00  0.00     0.299 C 
ATOM     27  H22 MOL     1       1.912   0.265  -2.244  1.00  0.00     0.348 HD
ATOM     28  C17 MOL     1       2.857  -2.089  -2.045  1.00  0.00     0.097 C 
ATOM     29  C23 MOL     1       0.436  -1.897  -2.785  1.00  0.00     0.010 A 
ATOM     30  C18 MOL     1       1.677  -2.556  -2.857  1.00  0.00    -0.034 A 
ATOM     31  C22 MOL     1      -0.627  -2.339  -3.587  1.00  0.00     0.010 A 
ATOM     32  C19 MOL     1       1.841  -3.625  -3.747  1.00  0.00     0.004 A 
ATOM     33  C21 MOL     1      -0.451  -3.407  -4.467  1.00  0.00     0.001 A 
ATOM     34  C20 MOL     1       0.780  -4.049  -4.545  1.00  0.00     0.000 A 
ENDBRANCH  17  24
ENDBRANCH   3  17
TORSDOF 7
