REMARK SMILES CSCC[C@@H](C=O)n1cc([C@H](C2CCCCC2)[N@H+]2CCc3ccccc3C2)nn1
REMARK SMILES IDX 5 1 4 2 3 3 2 4 1 5 6 6 7 7 8 8 9 9 29 10 10 11 28 12 11 13
REMARK SMILES IDX 12 14 13 15 17 16 14 17 16 18 15 19 18 20 19 21 27 22 20 24
REMARK SMILES IDX 26 25 21 26 25 27 22 28 24 29 23 30
REMARK H PARENT 18 23
REMARK Flexibility Score: inf
ROOT
ATOM      1  C4  MOL     1      -0.114   5.006   0.868  1.00  0.00     0.173 C 
ENDROOT
BRANCH   1   2
ATOM      2  C3  MOL     1       0.659   5.261   2.175  1.00  0.00     0.046 C 
BRANCH   2   3
ATOM      3  C2  MOL     1       2.069   4.664   2.254  1.00  0.00     0.072 C 
BRANCH   3   4
ATOM      4  S1  MOL     1       2.112   2.933   2.834  1.00  0.00    -0.165 SA
ATOM      5  C1  MOL     1       1.864   3.209   4.610  1.00  0.00     0.085 C 
ENDBRANCH   3   4
ENDBRANCH   2   3
ENDBRANCH   1   2
BRANCH   1   6
ATOM      6  C5  MOL     1       0.548   5.707  -0.298  1.00  0.00     0.251 C 
ATOM      7  O1  MOL     1       1.236   5.165  -1.157  1.00  0.00    -0.301 OA
ENDBRANCH   1   6
BRANCH   1   8
ATOM      8  N1  MOL     1      -0.449   3.614   0.618  1.00  0.00    -0.242 N 
ATOM      9  C6  MOL     1       0.234   2.638  -0.050  1.00  0.00     0.141 A 
ATOM     10  N4  MOL     1      -1.602   3.120   1.116  1.00  0.00    -0.066 NA
ATOM     11  C7  MOL     1      -0.571   1.525   0.047  1.00  0.00     0.140 A 
ATOM     12  N3  MOL     1      -1.695   1.851   0.754  1.00  0.00    -0.129 NA
BRANCH  11  13
ATOM     13  C8  MOL     1      -0.348   0.135  -0.469  1.00  0.00     0.241 C 
BRANCH  13  14
ATOM     14  C9  MOL     1      -1.460  -0.320  -1.473  1.00  0.00     0.054 C 
ATOM     15  C10 MOL     1      -1.565   0.627  -2.695  1.00  0.00     0.010 C 
ATOM     16  C14 MOL     1      -1.293  -1.759  -2.006  1.00  0.00     0.010 C 
ATOM     17  C11 MOL     1      -0.374   0.506  -3.646  1.00  0.00     0.001 C 
ATOM     18  C13 MOL     1      -0.086  -1.908  -2.931  1.00  0.00     0.001 C 
ATOM     19  C12 MOL     1      -0.159  -0.933  -4.103  1.00  0.00     0.000 C 
ENDBRANCH  13  14
BRANCH  13  20
ATOM     20  N2  MOL     1      -0.137  -0.893   0.648  1.00  0.00    -0.323 N 
ATOM     21  C15 MOL     1       1.056  -0.569   1.527  1.00  0.00     0.267 C 
ATOM     22  C23 MOL     1      -1.334  -1.148   1.537  1.00  0.00     0.299 C 
ATOM     23  H23 MOL     1       0.077  -1.787   0.197  1.00  0.00     0.348 HD
ATOM     24  C16 MOL     1       1.450  -1.815   2.323  1.00  0.00     0.097 C 
ATOM     25  C22 MOL     1      -1.049  -2.209   2.572  1.00  0.00     0.010 A 
ATOM     26  C17 MOL     1       0.271  -2.500   2.970  1.00  0.00    -0.034 A 
ATOM     27  C21 MOL     1      -2.118  -2.877   3.189  1.00  0.00     0.010 A 
ATOM     28  C18 MOL     1       0.499  -3.478   3.947  1.00  0.00     0.004 A 
ATOM     29  C20 MOL     1      -1.878  -3.841   4.167  1.00  0.00     0.001 A 
ATOM     30  C19 MOL     1      -0.572  -4.143   4.543  1.00  0.00     0.000 A 
ENDBRANCH  13  20
ENDBRANCH  11  13
ENDBRANCH   1   8
TORSDOF 8
