REMARK SMILES C[C@@H](O)[C@@H](C=O)n1cc([C@H](C2CCCCC2)[N@@H+]2CCc3ccccc3C2)nn1
REMARK SMILES IDX 7 1 8 2 9 3 27 4 28 5 4 6 2 7 1 8 3 9 5 11 6 12 10 13 11 14
REMARK SMILES IDX 12 15 16 16 13 17 15 18 14 19 17 20 18 21 26 22 19 24 25 25
REMARK SMILES IDX 20 26 24 27 21 28 23 29 22 30
REMARK H PARENT 3 10 17 23
REMARK Flexibility Score: inf
ROOT
ATOM      1  N1  MOL     1       2.181  -1.243  -1.943  1.00  0.00    -0.239 N 
ATOM      2  C5  MOL     1       1.652  -1.622  -0.740  1.00  0.00     0.142 A 
ATOM      3  C6  MOL     1       0.805  -0.590  -0.399  1.00  0.00     0.140 A 
ATOM      4  N3  MOL     1       0.900   0.390  -1.347  1.00  0.00    -0.129 NA
ATOM      5  N4  MOL     1       1.753  -0.013  -2.276  1.00  0.00    -0.066 NA
ENDROOT
BRANCH   1   6
ATOM      6  C3  MOL     1       3.041  -1.982  -2.852  1.00  0.00     0.200 C 
BRANCH   6   7
ATOM      7  C2  MOL     1       4.530  -1.899  -2.477  1.00  0.00     0.143 C 
ATOM      8  C1  MOL     1       4.910  -2.618  -1.184  1.00  0.00     0.041 C 
BRANCH   7   9
ATOM      9  O1  MOL     1       5.293  -2.458  -3.553  1.00  0.00    -0.391 OA
ATOM     10  H5  MOL     1       6.227  -2.509  -3.284  1.00  0.00     0.211 HD
ENDBRANCH   7   9
ENDBRANCH   6   7
BRANCH   6  11
ATOM     11  C4  MOL     1       2.596  -3.419  -3.033  1.00  0.00     0.254 C 
ATOM     12  O2  MOL     1       1.587  -3.916  -2.532  1.00  0.00    -0.301 OA
ENDBRANCH   6  11
ENDBRANCH   1   6
BRANCH   3  13
ATOM     13  C7  MOL     1      -0.183  -0.458   0.723  1.00  0.00     0.241 C 
BRANCH  13  14
ATOM     14  C8  MOL     1       0.360  -0.988   2.092  1.00  0.00     0.054 C 
ATOM     15  C9  MOL     1       1.604  -0.192   2.559  1.00  0.00     0.010 C 
ATOM     16  C13 MOL     1      -0.665  -0.971   3.245  1.00  0.00     0.010 C 
ATOM     17  C10 MOL     1       1.271   1.232   3.014  1.00  0.00     0.001 C 
ATOM     18  C12 MOL     1      -1.051   0.444   3.662  1.00  0.00     0.001 C 
ATOM     19  C11 MOL     1       0.176   1.258   4.075  1.00  0.00     0.000 C 
ENDBRANCH  13  14
BRANCH  13  20
ATOM     20  N2  MOL     1      -1.531  -1.094   0.374  1.00  0.00    -0.323 N 
ATOM     21  C14 MOL     1      -1.504  -2.567   0.024  1.00  0.00     0.267 C 
ATOM     22  C22 MOL     1      -2.247  -0.346  -0.734  1.00  0.00     0.299 C 
ATOM     23  H21 MOL     1      -2.147  -0.971   1.182  1.00  0.00     0.348 HD
ATOM     24  C15 MOL     1      -2.930  -3.125   0.050  1.00  0.00     0.097 C 
ATOM     25  C21 MOL     1      -3.626  -0.900  -0.981  1.00  0.00     0.010 A 
ATOM     26  C16 MOL     1      -3.936  -2.236  -0.649  1.00  0.00    -0.034 A 
ATOM     27  C20 MOL     1      -4.600  -0.093  -1.598  1.00  0.00     0.010 A 
ATOM     28  C17 MOL     1      -5.221  -2.732  -0.917  1.00  0.00     0.004 A 
ATOM     29  C19 MOL     1      -5.872  -0.601  -1.861  1.00  0.00     0.001 A 
ATOM     30  C18 MOL     1      -6.182  -1.917  -1.522  1.00  0.00     0.000 A 
ENDBRANCH  13  20
ENDBRANCH   3  13
TORSDOF 7
