REMARK SMILES CSCC[C@@H](C=O)n1cc([C@@H]([NH2+]Cc2ccc3c(c2)OCO3)C2CCCCC2)nn1
REMARK SMILES IDX 8 1 9 2 10 3 29 4 30 5 5 6 4 7 3 8 2 9 1 10 6 11 7 12 11 13
REMARK SMILES IDX 12 14 13 17 14 18 15 19 19 20 16 21 18 22 17 23 20 24 22 25
REMARK SMILES IDX 21 26 23 27 24 28 28 29 25 30 27 31 26 32
REMARK H PARENT 12 15 12 16
REMARK Flexibility Score: inf
ROOT
ATOM      1  N1  MOL     1      -0.561   1.770  -0.415  1.00  0.00    -0.242 N 
ATOM      2  C6  MOL     1      -1.251   0.595  -0.300  1.00  0.00     0.141 A 
ATOM      3  C7  MOL     1      -0.382  -0.238   0.365  1.00  0.00     0.140 A 
ATOM      4  N3  MOL     1       0.781   0.442   0.629  1.00  0.00    -0.129 NA
ATOM      5  N4  MOL     1       0.656   1.671   0.158  1.00  0.00    -0.066 NA
ENDROOT
BRANCH   1   6
ATOM      6  C4  MOL     1      -0.987   3.003  -1.047  1.00  0.00     0.173 C 
BRANCH   6   7
ATOM      7  C3  MOL     1      -0.974   4.217  -0.102  1.00  0.00     0.046 C 
BRANCH   7   8
ATOM      8  C2  MOL     1      -1.732   4.048   1.218  1.00  0.00     0.072 C 
BRANCH   8   9
ATOM      9  S1  MOL     1      -3.471   3.585   0.964  1.00  0.00    -0.165 SA
ATOM     10  C1  MOL     1      -4.032   3.656   2.684  1.00  0.00     0.085 C 
ENDBRANCH   8   9
ENDBRANCH   7   8
ENDBRANCH   6   7
BRANCH   6  11
ATOM     11  C5  MOL     1      -0.089   3.275  -2.229  1.00  0.00     0.251 C 
ATOM     12  O1  MOL     1      -0.448   3.125  -3.395  1.00  0.00    -0.301 OA
ENDBRANCH   6  11
ENDBRANCH   1   6
BRANCH   3  13
ATOM     13  C8  MOL     1      -0.482  -1.683   0.737  1.00  0.00     0.239 C 
BRANCH  13  14
ATOM     14  N2  MOL     1       0.873  -2.333   0.568  1.00  0.00    -0.335 N 
ATOM     15  H12 MOL     1       1.107  -2.920   1.373  1.00  0.00     0.347 HD
ATOM     16  H13 MOL     1       1.560  -1.563   0.584  1.00  0.00     0.347 HD
BRANCH  14  17
ATOM     17  C9  MOL     1       1.082  -3.122  -0.680  1.00  0.00     0.298 C 
BRANCH  17  18
ATOM     18  C10 MOL     1       0.815  -2.365  -1.952  1.00  0.00     0.010 A 
ATOM     19  C11 MOL     1      -0.260  -2.746  -2.790  1.00  0.00     0.013 A 
ATOM     20  C15 MOL     1       1.616  -1.266  -2.314  1.00  0.00     0.060 A 
ATOM     21  C12 MOL     1      -0.543  -2.040  -3.963  1.00  0.00     0.051 A 
ATOM     22  C14 MOL     1       1.308  -0.590  -3.478  1.00  0.00     0.166 A 
ATOM     23  C13 MOL     1       0.260  -0.966  -4.278  1.00  0.00     0.165 A 
ATOM     24  O2  MOL     1       1.972   0.493  -3.963  1.00  0.00    -0.454 OA
ATOM     25  O3  MOL     1       0.133  -0.174  -5.373  1.00  0.00    -0.454 OA
ATOM     26  C16 MOL     1       1.249   0.725  -5.196  1.00  0.00     0.468 C 
ENDBRANCH  17  18
ENDBRANCH  14  17
ENDBRANCH  13  14
BRANCH  13  27
ATOM     27  C17 MOL     1      -1.022  -1.892   2.176  1.00  0.00     0.054 C 
ATOM     28  C18 MOL     1      -0.095  -1.363   3.289  1.00  0.00     0.010 C 
ATOM     29  C22 MOL     1      -1.375  -3.372   2.430  1.00  0.00     0.010 C 
ATOM     30  C19 MOL     1      -0.697  -1.585   4.677  1.00  0.00     0.001 C 
ATOM     31  C21 MOL     1      -1.972  -3.583   3.820  1.00  0.00     0.001 C 
ATOM     32  C20 MOL     1      -1.053  -3.048   4.912  1.00  0.00     0.000 C 
ENDBRANCH  13  27
ENDBRANCH   3  13
TORSDOF 10
