REMARK SMILES O=C[C@H](CO)n1cc([C@H](C2CCCCC2)[N@H+]2CCc3ccccc3C2)nn1
REMARK SMILES IDX 6 1 7 2 8 3 26 4 27 5 3 6 2 7 1 8 4 9 5 10 9 12 10 13 11 14
REMARK SMILES IDX 15 15 12 16 14 17 13 18 16 19 17 20 25 21 18 23 24 24 19 25
REMARK SMILES IDX 23 26 20 27 22 28 21 29
REMARK H PARENT 5 11 16 22
REMARK Flexibility Score: inf
ROOT
ATOM      1  N1  MOL     1       0.648  -2.614  -2.697  1.00  0.00    -0.239 N 
ATOM      2  C4  MOL     1       0.294  -2.343  -1.403  1.00  0.00     0.142 A 
ATOM      3  C5  MOL     1       0.185  -0.971  -1.364  1.00  0.00     0.140 A 
ATOM      4  N3  MOL     1       0.594  -0.458  -2.568  1.00  0.00    -0.129 NA
ATOM      5  N4  MOL     1       0.907  -1.469  -3.362  1.00  0.00    -0.066 NA
ENDROOT
BRANCH   1   6
ATOM      6  C2  MOL     1       0.848  -3.893  -3.360  1.00  0.00     0.198 C 
BRANCH   6   7
ATOM      7  C1  MOL     1      -0.250  -4.889  -3.067  1.00  0.00     0.253 C 
ATOM      8  O1  MOL     1      -1.235  -4.665  -2.366  1.00  0.00    -0.301 OA
ENDBRANCH   6   7
BRANCH   6   9
ATOM      9  C3  MOL     1       2.199  -4.495  -2.992  1.00  0.00     0.191 C 
BRANCH   9  10
ATOM     10  O2  MOL     1       2.482  -5.606  -3.837  1.00  0.00    -0.394 OA
ATOM     11  H5  MOL     1       3.398  -5.893  -3.668  1.00  0.00     0.210 HD
ENDBRANCH   9  10
ENDBRANCH   6   9
ENDBRANCH   1   6
BRANCH   3  12
ATOM     12  C6  MOL     1      -0.247  -0.047  -0.260  1.00  0.00     0.241 C 
BRANCH  12  13
ATOM     13  C7  MOL     1      -1.777   0.258  -0.322  1.00  0.00     0.054 C 
ATOM     14  C8  MOL     1      -2.233   0.973  -1.610  1.00  0.00     0.010 C 
ATOM     15  C12 MOL     1      -2.627  -1.013  -0.104  1.00  0.00     0.010 C 
ATOM     16  C9  MOL     1      -3.727   1.294  -1.573  1.00  0.00     0.001 C 
ATOM     17  C11 MOL     1      -4.120  -0.689  -0.062  1.00  0.00     0.001 C 
ATOM     18  C10 MOL     1      -4.568   0.047  -1.322  1.00  0.00     0.000 C 
ENDBRANCH  12  13
BRANCH  12  19
ATOM     19  N2  MOL     1       0.588   1.253  -0.299  1.00  0.00    -0.323 N 
ATOM     20  C13 MOL     1       0.171   2.383   0.611  1.00  0.00     0.267 C 
ATOM     21  C21 MOL     1       2.072   1.004  -0.086  1.00  0.00     0.299 C 
ATOM     22  H19 MOL     1       0.509   1.569  -1.276  1.00  0.00     0.348 HD
ATOM     23  C14 MOL     1       0.305   1.986   2.081  1.00  0.00     0.097 C 
ATOM     24  C20 MOL     1       2.442   0.813   1.360  1.00  0.00     0.010 A 
ATOM     25  C15 MOL     1       1.620   1.312   2.390  1.00  0.00    -0.034 A 
ATOM     26  C19 MOL     1       3.651   0.180   1.689  1.00  0.00     0.010 A 
ATOM     27  C16 MOL     1       2.002   1.137   3.727  1.00  0.00     0.004 A 
ATOM     28  C18 MOL     1       4.024   0.021   3.022  1.00  0.00     0.001 A 
ATOM     29  C17 MOL     1       3.200   0.495   4.039  1.00  0.00     0.000 A 
ENDBRANCH  12  19
ENDBRANCH   3  12
TORSDOF 7
