REMARK SMILES [NH3+]CCCC[C@@H](C=O)n1cc([C@@H]([NH2+]Cc2ccc3c(c2)OCO3)C2CCCCC2)nn1
REMARK SMILES IDX 6 1 5 2 4 3 3 4 2 5 1 6 7 10 8 11 9 12 10 13 31 14 11 15
REMARK SMILES IDX 30 16 12 17 13 18 14 21 15 22 16 23 20 24 17 25 19 26 18 27
REMARK SMILES IDX 21 28 23 29 22 30 24 31 25 32 29 33 26 34 28 35 27 36
REMARK H PARENT 1 7 1 8 1 9 13 19 13 20
REMARK Flexibility Score: inf
ROOT
ATOM      1  C5  MOL     1       0.759   2.973  -0.546  1.00  0.00     0.172 C 
ENDROOT
BRANCH   1   2
ATOM      2  C4  MOL     1       2.242   3.239  -0.882  1.00  0.00     0.035 C 
BRANCH   2   3
ATOM      3  C3  MOL     1       2.964   2.272  -1.840  1.00  0.00     0.008 C 
BRANCH   3   4
ATOM      4  C2  MOL     1       2.511   2.265  -3.305  1.00  0.00     0.061 C 
BRANCH   4   5
ATOM      5  C1  MOL     1       2.829   3.559  -4.057  1.00  0.00     0.258 C 
BRANCH   5   6
ATOM      6  N1  MOL     1       1.623   4.026  -4.775  1.00  0.00    -0.358 N 
ATOM      7  H1  MOL     1       1.780   4.915  -5.265  1.00  0.00     0.344 HD
ATOM      8  H2  MOL     1       1.275   3.343  -5.458  1.00  0.00     0.344 HD
ATOM      9  H3  MOL     1       0.855   4.192  -4.091  1.00  0.00     0.344 HD
ENDBRANCH   5   6
ENDBRANCH   4   5
ENDBRANCH   3   4
ENDBRANCH   2   3
ENDBRANCH   1   2
BRANCH   1  10
ATOM     10  C6  MOL     1      -0.211   3.431  -1.620  1.00  0.00     0.251 C 
ATOM     11  O1  MOL     1       0.122   4.020  -2.652  1.00  0.00    -0.301 OA
ENDBRANCH   1  10
BRANCH   1  12
ATOM     12  N2  MOL     1       0.489   1.603  -0.144  1.00  0.00    -0.242 N 
ATOM     13  C7  MOL     1       0.531   1.069   1.113  1.00  0.00     0.141 A 
ATOM     14  N5  MOL     1       0.120   0.678  -1.049  1.00  0.00    -0.066 NA
ATOM     15  C8  MOL     1       0.138  -0.241   0.934  1.00  0.00     0.140 A 
ATOM     16  N4  MOL     1      -0.105  -0.454  -0.401  1.00  0.00    -0.129 NA
BRANCH  15  17
ATOM     17  C9  MOL     1      -0.114  -1.342   1.924  1.00  0.00     0.239 C 
BRANCH  17  18
ATOM     18  N3  MOL     1      -1.354  -2.122   1.546  1.00  0.00    -0.335 N 
ATOM     19  H16 MOL     1      -1.256  -3.110   1.800  1.00  0.00     0.347 HD
ATOM     20  H17 MOL     1      -1.411  -2.101   0.517  1.00  0.00     0.347 HD
BRANCH  18  21
ATOM     21  C10 MOL     1      -2.650  -1.623   2.100  1.00  0.00     0.298 C 
BRANCH  21  22
ATOM     22  C11 MOL     1      -3.003  -0.231   1.651  1.00  0.00     0.010 A 
ATOM     23  C12 MOL     1      -3.430   0.005   0.321  1.00  0.00     0.013 A 
ATOM     24  C16 MOL     1      -2.856   0.855   2.531  1.00  0.00     0.060 A 
ATOM     25  C13 MOL     1      -3.682   1.303  -0.135  1.00  0.00     0.051 A 
ATOM     26  C15 MOL     1      -3.113   2.122   2.049  1.00  0.00     0.166 A 
ATOM     27  C14 MOL     1      -3.507   2.341   0.752  1.00  0.00     0.165 A 
ATOM     28  O2  MOL     1      -2.990   3.277   2.754  1.00  0.00    -0.454 OA
ATOM     29  O3  MOL     1      -3.670   3.663   0.479  1.00  0.00    -0.454 OA
ATOM     30  C17 MOL     1      -3.498   4.234   1.797  1.00  0.00     0.468 C 
ENDBRANCH  21  22
ENDBRANCH  18  21
ENDBRANCH  17  18
BRANCH  17  31
ATOM     31  C18 MOL     1       1.108  -2.288   2.063  1.00  0.00     0.054 C 
ATOM     32  C19 MOL     1       0.974  -3.243   3.261  1.00  0.00     0.010 C 
ATOM     33  C23 MOL     1       1.450  -3.075   0.778  1.00  0.00     0.010 C 
ATOM     34  C20 MOL     1       2.280  -3.995   3.536  1.00  0.00     0.001 C 
ATOM     35  C22 MOL     1       2.249  -4.357   1.037  1.00  0.00     0.001 C 
ATOM     36  C21 MOL     1       3.117  -4.248   2.282  1.00  0.00     0.000 C 
ENDBRANCH  17  31
ENDBRANCH  15  17
ENDBRANCH   1  12
TORSDOF 12
