REMARK SMILES O=C[C@H](Cc1ccccc1)n1cc([C@H](C2CCCCC2)[N@H+]2CCc3ccccc3C2)nn1
REMARK SMILES IDX 11 1 12 2 13 3 31 4 32 5 3 6 2 7 1 8 4 9 5 10 6 11 10 12
REMARK SMILES IDX 7 13 9 14 8 15 14 16 15 17 16 18 20 19 17 20 19 21 18 22
REMARK SMILES IDX 21 23 22 24 30 25 23 27 29 28 24 29 28 30 25 31 27 32 26 33
REMARK H PARENT 21 26
REMARK Flexibility Score: inf
ROOT
ATOM      1  N1  MOL     1      -1.999  -1.638   2.214  1.00  0.00    -0.241 N 
ATOM      2  C10 MOL     1      -1.276  -1.347   1.088  1.00  0.00     0.141 A 
ATOM      3  C11 MOL     1      -2.021  -0.377   0.451  1.00  0.00     0.140 A 
ATOM      4  N3  MOL     1      -3.159  -0.147   1.179  1.00  0.00    -0.129 NA
ATOM      5  N4  MOL     1      -3.128  -0.912   2.258  1.00  0.00    -0.066 NA
ENDROOT
BRANCH   1   6
ATOM      6  C2  MOL     1      -1.626  -2.520   3.310  1.00  0.00     0.177 C 
BRANCH   6   7
ATOM      7  C1  MOL     1      -2.789  -3.412   3.676  1.00  0.00     0.251 C 
ATOM      8  O1  MOL     1      -2.981  -3.856   4.805  1.00  0.00    -0.301 OA
ENDBRANCH   6   7
BRANCH   6   9
ATOM      9  C3  MOL     1      -1.116  -1.739   4.531  1.00  0.00     0.070 C 
BRANCH   9  10
ATOM     10  C4  MOL     1       0.068  -0.845   4.226  1.00  0.00    -0.045 A 
ATOM     11  C5  MOL     1       1.325  -1.395   3.939  1.00  0.00     0.004 A 
ATOM     12  C9  MOL     1      -0.081   0.550   4.229  1.00  0.00     0.004 A 
ATOM     13  C6  MOL     1       2.410  -0.565   3.654  1.00  0.00     0.000 A 
ATOM     14  C8  MOL     1       1.008   1.378   3.952  1.00  0.00     0.000 A 
ATOM     15  C7  MOL     1       2.252   0.819   3.662  1.00  0.00     0.000 A 
ENDBRANCH   9  10
ENDBRANCH   6   9
ENDBRANCH   1   6
BRANCH   3  16
ATOM     16  C12 MOL     1      -1.748   0.460  -0.767  1.00  0.00     0.241 C 
BRANCH  16  17
ATOM     17  C13 MOL     1      -1.041  -0.310  -1.927  1.00  0.00     0.054 C 
ATOM     18  C14 MOL     1      -0.741   0.589  -3.148  1.00  0.00     0.010 C 
ATOM     19  C18 MOL     1      -1.905  -1.511  -2.385  1.00  0.00     0.010 C 
ATOM     20  C15 MOL     1      -0.118  -0.186  -4.307  1.00  0.00     0.001 C 
ATOM     21  C17 MOL     1      -1.270  -2.280  -3.541  1.00  0.00     0.001 C 
ATOM     22  C16 MOL     1      -0.979  -1.369  -4.724  1.00  0.00     0.000 C 
ENDBRANCH  16  17
BRANCH  16  23
ATOM     23  N2  MOL     1      -1.016   1.763  -0.413  1.00  0.00    -0.323 N 
ATOM     24  C19 MOL     1      -1.807   2.621   0.566  1.00  0.00     0.267 C 
ATOM     25  C27 MOL     1       0.392   1.592   0.103  1.00  0.00     0.299 C 
ATOM     26  H23 MOL     1      -0.948   2.317  -1.271  1.00  0.00     0.348 HD
ATOM     27  C20 MOL     1      -1.225   4.035   0.586  1.00  0.00     0.097 C 
ATOM     28  C26 MOL     1       1.045   2.903   0.456  1.00  0.00     0.010 A 
ATOM     29  C21 MOL     1       0.277   4.050   0.731  1.00  0.00    -0.034 A 
ATOM     30  C25 MOL     1       2.442   2.967   0.571  1.00  0.00     0.010 A 
ATOM     31  C22 MOL     1       0.918   5.245   1.086  1.00  0.00     0.004 A 
ATOM     32  C24 MOL     1       3.068   4.160   0.933  1.00  0.00     0.001 A 
ATOM     33  C23 MOL     1       2.307   5.296   1.189  1.00  0.00     0.000 A 
ENDBRANCH  16  23
ENDBRANCH   3  16
TORSDOF 7
