REMARK SMILES O=C[C@H](Cc1ccccc1)n1cc([C@@H]([NH2+]Cc2ccc3c(c2)OCO3)C2CCCCC2)nn1
REMARK SMILES IDX 11 1 12 2 13 3 32 4 33 5 3 6 2 7 1 8 4 9 5 10 6 11 10 12
REMARK SMILES IDX 7 13 9 14 8 15 14 16 15 17 16 20 17 21 18 22 22 23 19 24
REMARK SMILES IDX 21 25 20 26 23 27 25 28 24 29 26 30 27 31 31 32 28 33 30 34
REMARK SMILES IDX 29 35
REMARK H PARENT 15 18 15 19
REMARK Flexibility Score: inf
ROOT
ATOM      1  N1  MOL     1      -0.999   1.685  -2.286  1.00  0.00    -0.241 N 
ATOM      2  C10 MOL     1       0.338   1.514  -2.052  1.00  0.00     0.141 A 
ATOM      3  C11 MOL     1       0.407   0.312  -1.387  1.00  0.00     0.140 A 
ATOM      4  N3  MOL     1      -0.856  -0.211  -1.269  1.00  0.00    -0.129 NA
ATOM      5  N4  MOL     1      -1.705   0.632  -1.829  1.00  0.00    -0.066 NA
ENDROOT
BRANCH   1   6
ATOM      6  C2  MOL     1      -1.688   2.827  -2.856  1.00  0.00     0.177 C 
BRANCH   6   7
ATOM      7  C1  MOL     1      -1.379   2.881  -4.332  1.00  0.00     0.251 C 
ATOM      8  O1  MOL     1      -0.395   3.447  -4.801  1.00  0.00    -0.301 OA
ENDBRANCH   6   7
BRANCH   6   9
ATOM      9  C3  MOL     1      -1.334   4.157  -2.166  1.00  0.00     0.070 C 
BRANCH   9  10
ATOM     10  C4  MOL     1      -1.433   4.150  -0.654  1.00  0.00    -0.045 A 
ATOM     11  C5  MOL     1      -0.388   4.691   0.110  1.00  0.00     0.004 A 
ATOM     12  C9  MOL     1      -2.564   3.655   0.009  1.00  0.00     0.004 A 
ATOM     13  C6  MOL     1      -0.459   4.710   1.505  1.00  0.00     0.000 A 
ATOM     14  C8  MOL     1      -2.633   3.674   1.405  1.00  0.00     0.000 A 
ATOM     15  C7  MOL     1      -1.580   4.197   2.152  1.00  0.00     0.000 A 
ENDBRANCH   9  10
ENDBRANCH   6   9
ENDBRANCH   1   6
BRANCH   3  16
ATOM     16  C12 MOL     1       1.555  -0.396  -0.739  1.00  0.00     0.239 C 
BRANCH  16  17
ATOM     17  N2  MOL     1       1.065  -0.898   0.602  1.00  0.00    -0.335 N 
ATOM     18  H12 MOL     1       0.068  -1.143   0.469  1.00  0.00     0.347 HD
ATOM     19  H13 MOL     1       1.515  -1.769   0.902  1.00  0.00     0.347 HD
BRANCH  17  20
ATOM     20  C13 MOL     1       1.130   0.108   1.699  1.00  0.00     0.298 C 
BRANCH  20  21
ATOM     21  C14 MOL     1       0.371  -0.363   2.906  1.00  0.00     0.010 A 
ATOM     22  C15 MOL     1      -0.986   0.005   3.080  1.00  0.00     0.013 A 
ATOM     23  C19 MOL     1       0.988  -1.206   3.845  1.00  0.00     0.060 A 
ATOM     24  C16 MOL     1      -1.716  -0.450   4.183  1.00  0.00     0.051 A 
ATOM     25  C18 MOL     1       0.238  -1.638   4.920  1.00  0.00     0.166 A 
ATOM     26  C17 MOL     1      -1.075  -1.269   5.086  1.00  0.00     0.165 A 
ATOM     27  O2  MOL     1       0.679  -2.450   5.915  1.00  0.00    -0.454 OA
ATOM     28  O3  MOL     1      -1.625  -1.798   6.211  1.00  0.00    -0.454 OA
ATOM     29  C20 MOL     1      -0.499  -2.522   6.752  1.00  0.00     0.468 C 
ENDBRANCH  20  21
ENDBRANCH  17  20
ENDBRANCH  16  17
BRANCH  16  30
ATOM     30  C21 MOL     1       2.111  -1.582  -1.575  1.00  0.00     0.054 C 
ATOM     31  C22 MOL     1       2.453  -1.138  -3.015  1.00  0.00     0.010 C 
ATOM     32  C26 MOL     1       3.369  -2.191  -0.912  1.00  0.00     0.010 C 
ATOM     33  C23 MOL     1       3.094  -2.251  -3.842  1.00  0.00     0.001 C 
ATOM     34  C25 MOL     1       4.004  -3.298  -1.754  1.00  0.00     0.001 C 
ATOM     35  C24 MOL     1       4.332  -2.816  -3.159  1.00  0.00     0.000 C 
ENDBRANCH  16  30
ENDBRANCH   3  16
TORSDOF 9
