REMARK SMILES O=C[C@H](c1ccccc1)n1cc([C@@H]([NH2+]Cc2ccc3c(c2)OCO3)C2CCCCC2)nn1
REMARK SMILES IDX 13 1 12 2 10 3 11 4 32 5 31 6 3 7 2 8 1 9 4 10 5 11 9 12
REMARK SMILES IDX 6 13 8 14 7 15 14 16 15 19 16 20 17 21 21 22 18 23 20 24
REMARK SMILES IDX 19 25 22 26 24 27 23 28 25 29 26 30 30 31 27 32 29 33 28 34
REMARK H PARENT 14 17 14 18
REMARK Flexibility Score: inf
ROOT
ATOM      1  C11 MOL     1      -1.106   0.050   0.254  1.00  0.00     0.239 C 
ENDROOT
BRANCH   1   2
ATOM      2  C10 MOL     1       0.118   0.752   0.739  1.00  0.00     0.140 A 
ATOM      3  N1  MOL     1       2.012   1.768   1.020  1.00  0.00    -0.237 N 
ATOM      4  C9  MOL     1       1.148   1.345   0.046  1.00  0.00     0.142 A 
ATOM      5  N4  MOL     1       1.559   1.408   2.241  1.00  0.00    -0.066 NA
ATOM      6  N3  MOL     1       0.394   0.800   2.081  1.00  0.00    -0.129 NA
BRANCH   3   7
ATOM      7  C2  MOL     1       3.314   2.418   0.886  1.00  0.00     0.202 C 
BRANCH   7   8
ATOM      8  C1  MOL     1       3.214   3.762   0.204  1.00  0.00     0.256 C 
ATOM      9  O1  MOL     1       2.267   4.138  -0.481  1.00  0.00    -0.301 OA
ENDBRANCH   7   8
BRANCH   7  10
ATOM     10  C3  MOL     1       4.309   1.474   0.230  1.00  0.00    -0.016 A 
ATOM     11  C4  MOL     1       5.040   0.578   1.029  1.00  0.00     0.006 A 
ATOM     12  C8  MOL     1       4.492   1.434  -1.164  1.00  0.00     0.006 A 
ATOM     13  C5  MOL     1       5.941  -0.319   0.453  1.00  0.00     0.000 A 
ATOM     14  C7  MOL     1       5.395   0.536  -1.735  1.00  0.00     0.000 A 
ATOM     15  C6  MOL     1       6.120  -0.337  -0.928  1.00  0.00     0.000 A 
ENDBRANCH   7  10
ENDBRANCH   3   7
ENDBRANCH   1   2
BRANCH   1  16
ATOM     16  N2  MOL     1      -1.420  -1.143   1.134  1.00  0.00    -0.335 N 
ATOM     17  H10 MOL     1      -1.494  -0.787   2.095  1.00  0.00     0.347 HD
ATOM     18  H11 MOL     1      -2.332  -1.534   0.878  1.00  0.00     0.347 HD
BRANCH  16  19
ATOM     19  C12 MOL     1      -0.404  -2.240   1.161  1.00  0.00     0.298 C 
BRANCH  19  20
ATOM     20  C13 MOL     1      -0.159  -2.865  -0.183  1.00  0.00     0.010 A 
ATOM     21  C14 MOL     1       1.052  -2.614  -0.874  1.00  0.00     0.013 A 
ATOM     22  C18 MOL     1      -1.138  -3.680  -0.777  1.00  0.00     0.060 A 
ATOM     23  C15 MOL     1       1.285  -3.161  -2.139  1.00  0.00     0.051 A 
ATOM     24  C17 MOL     1      -0.875  -4.204  -2.026  1.00  0.00     0.166 A 
ATOM     25  C16 MOL     1       0.300  -3.951  -2.688  1.00  0.00     0.165 A 
ATOM     26  O2  MOL     1      -1.712  -5.004  -2.737  1.00  0.00    -0.454 OA
ATOM     27  O3  MOL     1       0.353  -4.561  -3.900  1.00  0.00    -0.454 OA
ATOM     28  C19 MOL     1      -0.913  -5.255  -3.916  1.00  0.00     0.468 C 
ENDBRANCH  19  20
ENDBRANCH  16  19
ENDBRANCH   1  16
BRANCH   1  29
ATOM     29  C20 MOL     1      -2.372   0.948   0.176  1.00  0.00     0.054 C 
ATOM     30  C21 MOL     1      -2.221   2.043  -0.897  1.00  0.00     0.010 C 
ATOM     31  C25 MOL     1      -2.794   1.577   1.519  1.00  0.00     0.010 C 
ATOM     32  C22 MOL     1      -3.493   2.876  -1.038  1.00  0.00     0.001 C 
ATOM     33  C24 MOL     1      -4.061   2.419   1.375  1.00  0.00     0.001 C 
ATOM     34  C23 MOL     1      -3.913   3.485   0.295  1.00  0.00     0.000 C 
ENDBRANCH   1  29
TORSDOF 8
