REMARK SMILES O=C[C@H](Cc1c[nH]c2ccccc12)n1cc([C@@H]([NH2+]Cc2ccc3c(c2)OCO3)C2CCCCC2)nn1
REMARK SMILES IDX 14 1 15 2 16 3 35 4 36 5 3 6 2 7 1 8 4 9 5 10 6 11 13 12
REMARK SMILES IDX 7 13 8 14 12 15 9 17 11 18 10 19 17 20 18 21 19 24 20 25
REMARK SMILES IDX 21 26 25 27 22 28 24 29 23 30 26 31 28 32 27 33 29 34 30 35
REMARK SMILES IDX 34 36 31 37 33 38 32 39
REMARK H PARENT 7 16 18 22 18 23
REMARK Flexibility Score: inf
ROOT
ATOM      1  N2  MOL     1       0.026  -2.711   2.349  1.00  0.00    -0.241 N 
ATOM      2  C12 MOL     1       0.893  -1.706   2.019  1.00  0.00     0.141 A 
ATOM      3  C13 MOL     1       0.353  -0.577   2.596  1.00  0.00     0.140 A 
ATOM      4  N4  MOL     1      -0.759  -0.939   3.304  1.00  0.00    -0.129 NA
ATOM      5  N5  MOL     1      -0.955  -2.238   3.140  1.00  0.00    -0.066 NA
ENDROOT
BRANCH   1   6
ATOM      6  C2  MOL     1      -0.075  -4.059   1.809  1.00  0.00     0.177 C 
BRANCH   6   7
ATOM      7  C1  MOL     1       1.256  -4.748   1.607  1.00  0.00     0.251 C 
ATOM      8  O1  MOL     1       2.361  -4.234   1.762  1.00  0.00    -0.301 OA
ENDBRANCH   6   7
BRANCH   6   9
ATOM      9  C3  MOL     1      -0.911  -4.111   0.520  1.00  0.00     0.073 C 
BRANCH   9  10
ATOM     10  C4  MOL     1      -0.417  -3.210  -0.579  1.00  0.00    -0.020 A 
ATOM     11  C5  MOL     1       0.581  -3.493  -1.491  1.00  0.00     0.087 A 
ATOM     12  C11 MOL     1      -0.893  -1.891  -0.885  1.00  0.00     0.003 A 
ATOM     13  N1  MOL     1       0.719  -2.420  -2.332  1.00  0.00    -0.361 N 
ATOM     14  C6  MOL     1      -0.153  -1.419  -1.969  1.00  0.00     0.046 A 
ATOM     15  C10 MOL     1      -1.889  -1.054  -0.340  1.00  0.00     0.010 A 
ATOM     16  H6  MOL     1       1.368  -2.364  -3.108  1.00  0.00     0.166 HD
ATOM     17  C7  MOL     1      -0.359  -0.154  -2.533  1.00  0.00     0.026 A 
ATOM     18  C9  MOL     1      -2.111   0.211  -0.897  1.00  0.00     0.001 A 
ATOM     19  C8  MOL     1      -1.352   0.655  -1.976  1.00  0.00     0.002 A 
ENDBRANCH   9  10
ENDBRANCH   6   9
ENDBRANCH   1   6
BRANCH   3  20
ATOM     20  C14 MOL     1       0.803   0.848   2.475  1.00  0.00     0.239 C 
BRANCH  20  21
ATOM     21  N3  MOL     1       1.163   1.172   1.041  1.00  0.00    -0.335 N 
ATOM     22  H13 MOL     1       0.684   0.496   0.423  1.00  0.00     0.347 HD
ATOM     23  H14 MOL     1       0.787   2.079   0.752  1.00  0.00     0.347 HD
BRANCH  21  24
ATOM     24  C15 MOL     1       2.622   1.147   0.750  1.00  0.00     0.298 C 
BRANCH  24  25
ATOM     25  C16 MOL     1       2.886   1.226  -0.726  1.00  0.00     0.010 A 
ATOM     26  C17 MOL     1       2.853   2.471  -1.398  1.00  0.00     0.013 A 
ATOM     27  C21 MOL     1       3.124   0.050  -1.458  1.00  0.00     0.060 A 
ATOM     28  C18 MOL     1       3.056   2.545  -2.780  1.00  0.00     0.051 A 
ATOM     29  C20 MOL     1       3.314   0.158  -2.820  1.00  0.00     0.166 A 
ATOM     30  C19 MOL     1       3.283   1.370  -3.462  1.00  0.00     0.165 A 
ATOM     31  O2  MOL     1       3.516  -0.880  -3.675  1.00  0.00    -0.454 OA
ATOM     32  O3  MOL     1       3.482   1.252  -4.800  1.00  0.00    -0.454 OA
ATOM     33  C22 MOL     1       3.698  -0.169  -4.923  1.00  0.00     0.468 C 
ENDBRANCH  24  25
ENDBRANCH  21  24
ENDBRANCH  20  21
BRANCH  20  34
ATOM     34  C23 MOL     1      -0.199   1.897   3.032  1.00  0.00     0.054 C 
ATOM     35  C24 MOL     1       0.468   3.279   3.195  1.00  0.00     0.010 C 
ATOM     36  C28 MOL     1      -1.500   2.031   2.218  1.00  0.00     0.010 C 
ATOM     37  C25 MOL     1      -0.488   4.300   3.811  1.00  0.00     0.001 C 
ATOM     38  C27 MOL     1      -2.452   3.052   2.841  1.00  0.00     0.001 C 
ATOM     39  C26 MOL     1      -1.783   4.411   3.014  1.00  0.00     0.000 C 
ENDBRANCH  20  34
ENDBRANCH   3  20
TORSDOF 9
