REMARK SMILES O=C[C@H](Cc1ccc(O)cc1)n1cc([C@H](C2CCCCC2)[N@H+]2CCc3ccccc3C2)nn1
REMARK SMILES IDX 3 1 2 2 1 3 4 4 5 5 6 6 11 7 7 8 10 9 8 10 9 11 12 13 13 14
REMARK SMILES IDX 33 15 14 16 32 17 15 18 16 19 17 20 21 21 18 22 20 23 19 24
REMARK SMILES IDX 22 25 23 26 31 27 24 29 30 30 25 31 29 32 26 33 28 34 27 35
REMARK H PARENT 9 12 22 28
REMARK Flexibility Score: inf
ROOT
ATOM      1  C2  MOL     1      -2.720   2.804  -0.757  1.00  0.00     0.177 C 
ENDROOT
BRANCH   1   2
ATOM      2  C1  MOL     1      -3.079   2.070  -2.030  1.00  0.00     0.251 C 
ATOM      3  O1  MOL     1      -2.824   0.891  -2.265  1.00  0.00    -0.301 OA
ENDBRANCH   1   2
BRANCH   1   4
ATOM      4  C3  MOL     1      -2.118   4.190  -1.045  1.00  0.00     0.070 C 
BRANCH   4   5
ATOM      5  C4  MOL     1      -0.726   4.176  -1.637  1.00  0.00    -0.045 A 
ATOM      6  C5  MOL     1      -0.525   3.983  -3.012  1.00  0.00     0.007 A 
ATOM      7  C9  MOL     1       0.392   4.331  -0.802  1.00  0.00     0.007 A 
ATOM      8  C6  MOL     1       0.768   3.922  -3.537  1.00  0.00     0.046 A 
ATOM      9  C8  MOL     1       1.682   4.263  -1.327  1.00  0.00     0.046 A 
ATOM     10  C7  MOL     1       1.860   4.057  -2.689  1.00  0.00     0.115 A 
BRANCH  10  11
ATOM     11  O2  MOL     1       3.138   3.990  -3.157  1.00  0.00    -0.508 OA
ATOM     12  H7  MOL     1       3.121   4.034  -4.128  1.00  0.00     0.293 HD
ENDBRANCH  10  11
ENDBRANCH   4   5
ENDBRANCH   1   4
BRANCH   1  13
ATOM     13  N1  MOL     1      -1.918   1.999   0.150  1.00  0.00    -0.241 N 
ATOM     14  C10 MOL     1      -0.806   1.245  -0.105  1.00  0.00     0.141 A 
ATOM     15  N4  MOL     1      -2.224   1.956   1.461  1.00  0.00    -0.066 NA
ATOM     16  C11 MOL     1      -0.447   0.728   1.119  1.00  0.00     0.140 A 
ATOM     17  N3  MOL     1      -1.334   1.182   2.062  1.00  0.00    -0.129 NA
BRANCH  16  18
ATOM     18  C12 MOL     1       0.653  -0.202   1.532  1.00  0.00     0.241 C 
BRANCH  18  19
ATOM     19  C13 MOL     1       1.821  -0.338   0.508  1.00  0.00     0.054 C 
ATOM     20  C14 MOL     1       1.546  -1.254  -0.699  1.00  0.00     0.010 C 
ATOM     21  C18 MOL     1       3.127  -0.789   1.201  1.00  0.00     0.010 C 
ATOM     22  C15 MOL     1       2.716  -1.241  -1.683  1.00  0.00     0.001 C 
ATOM     23  C17 MOL     1       4.306  -0.800   0.228  1.00  0.00     0.001 C 
ATOM     24  C16 MOL     1       4.019  -1.653  -1.004  1.00  0.00     0.000 C 
ENDBRANCH  18  19
BRANCH  18  25
ATOM     25  N2  MOL     1       0.175  -1.570   2.029  1.00  0.00    -0.323 N 
ATOM     26  C19 MOL     1      -0.095  -1.588   3.522  1.00  0.00     0.267 C 
ATOM     27  C27 MOL     1      -1.050  -2.118   1.321  1.00  0.00     0.299 C 
ATOM     28  H23 MOL     1       0.924  -2.247   1.858  1.00  0.00     0.348 HD
ATOM     29  C20 MOL     1      -0.200  -3.037   4.004  1.00  0.00     0.097 C 
ATOM     30  C26 MOL     1      -1.419  -3.490   1.821  1.00  0.00     0.010 A 
ATOM     31  C21 MOL     1      -1.050  -3.910   3.115  1.00  0.00    -0.034 A 
ATOM     32  C25 MOL     1      -2.195  -4.338   1.018  1.00  0.00     0.010 A 
ATOM     33  C22 MOL     1      -1.432  -5.181   3.565  1.00  0.00     0.004 A 
ATOM     34  C24 MOL     1      -2.576  -5.597   1.481  1.00  0.00     0.001 A 
ATOM     35  C23 MOL     1      -2.193  -6.018   2.751  1.00  0.00     0.000 A 
ENDBRANCH  18  25
ENDBRANCH  16  18
ENDBRANCH   1  13
TORSDOF 8
