REMARK SMILES CC(C)[C@@H](C=O)n1cc([C@@H]([NH2+]Cc2ccc3c(c2)OCO3)C2CCCCC2)nn1
REMARK SMILES IDX 10 1 9 2 7 3 8 4 29 5 28 6 4 7 2 8 1 9 3 10 5 11 6 12 11 13
REMARK SMILES IDX 12 16 13 17 14 18 18 19 15 20 17 21 16 22 19 23 21 24 20 25
REMARK SMILES IDX 22 26 23 27 27 28 24 29 26 30 25 31
REMARK H PARENT 11 14 11 15
REMARK Flexibility Score: inf
ROOT
ATOM      1  C8  MOL     1      -0.554  -0.657  -0.653  1.00  0.00     0.239 C 
ENDROOT
BRANCH   1   2
ATOM      2  C7  MOL     1      -1.521   0.102   0.199  1.00  0.00     0.140 A 
ATOM      3  N1  MOL     1      -3.148   0.832   1.433  1.00  0.00    -0.242 N 
ATOM      4  C6  MOL     1      -2.805  -0.194   0.595  1.00  0.00     0.141 A 
ATOM      5  N4  MOL     1      -2.162   1.753   1.469  1.00  0.00    -0.066 NA
ATOM      6  N3  MOL     1      -1.157   1.311   0.731  1.00  0.00    -0.129 NA
BRANCH   3   7
ATOM      7  C4  MOL     1      -4.350   1.038   2.228  1.00  0.00     0.175 C 
BRANCH   7   8
ATOM      8  C2  MOL     1      -5.554   1.633   1.458  1.00  0.00     0.015 C 
ATOM      9  C1  MOL     1      -6.034   0.765   0.291  1.00  0.00     0.010 C 
ATOM     10  C3  MOL     1      -5.266   3.055   0.966  1.00  0.00     0.010 C 
ENDBRANCH   7   8
BRANCH   7  11
ATOM     11  C5  MOL     1      -4.770  -0.198   2.998  1.00  0.00     0.251 C 
ATOM     12  O1  MOL     1      -4.398  -1.343   2.759  1.00  0.00    -0.301 OA
ENDBRANCH   7  11
ENDBRANCH   3   7
ENDBRANCH   1   2
BRANCH   1  13
ATOM     13  N2  MOL     1       0.500   0.269  -1.196  1.00  0.00    -0.335 N 
ATOM     14  H12 MOL     1       0.748   0.908  -0.425  1.00  0.00     0.347 HD
ATOM     15  H13 MOL     1       1.363  -0.224  -1.444  1.00  0.00     0.347 HD
BRANCH  13  16
ATOM     16  C9  MOL     1       0.078   1.117  -2.344  1.00  0.00     0.298 C 
BRANCH  16  17
ATOM     17  C10 MOL     1       1.169   2.086  -2.699  1.00  0.00     0.010 A 
ATOM     18  C11 MOL     1       2.132   1.756  -3.682  1.00  0.00     0.013 A 
ATOM     19  C15 MOL     1       1.278   3.302  -2.004  1.00  0.00     0.060 A 
ATOM     20  C12 MOL     1       3.186   2.628  -3.976  1.00  0.00     0.051 A 
ATOM     21  C14 MOL     1       2.328   4.138  -2.318  1.00  0.00     0.166 A 
ATOM     22  C13 MOL     1       3.257   3.810  -3.275  1.00  0.00     0.165 A 
ATOM     23  O2  MOL     1       2.578   5.343  -1.743  1.00  0.00    -0.454 OA
ATOM     24  O3  MOL     1       4.212   4.764  -3.421  1.00  0.00    -0.454 OA
ATOM     25  C16 MOL     1       3.762   5.751  -2.466  1.00  0.00     0.468 C 
ENDBRANCH  16  17
ENDBRANCH  13  16
ENDBRANCH   1  13
BRANCH   1  26
ATOM     26  C17 MOL     1       0.108  -1.827   0.126  1.00  0.00     0.054 C 
ATOM     27  C18 MOL     1       0.818  -2.814  -0.823  1.00  0.00     0.010 C 
ATOM     28  C22 MOL     1       1.072  -1.369   1.238  1.00  0.00     0.010 C 
ATOM     29  C19 MOL     1       1.414  -3.997  -0.063  1.00  0.00     0.001 C 
ATOM     30  C21 MOL     1       1.669  -2.558   1.991  1.00  0.00     0.001 C 
ATOM     31  C20 MOL     1       2.356  -3.537   1.044  1.00  0.00     0.000 C 
ENDBRANCH   1  26
TORSDOF 8
