REMARK SMILES O=C[C@H](Cc1c[nH]c[nH+]1)n1cc([C@@H]([NH2+]Cc2ccc3c(c2)OCO3)C2CCCCC2)nn1
REMARK SMILES IDX 10 1 11 2 12 3 31 4 32 5 3 6 2 7 1 8 4 9 5 10 6 11 9 12 7 13
REMARK SMILES IDX 8 14 13 17 14 18 15 21 16 22 17 23 21 24 18 25 20 26 19 27
REMARK SMILES IDX 22 28 24 29 23 30 25 31 26 32 30 33 27 34 29 35 28 36
REMARK H PARENT 9 15 7 16 14 19 14 20
REMARK Flexibility Score: inf
ROOT
ATOM      1  N3  MOL     1       0.392  -1.151  -0.929  1.00  0.00    -0.241 N 
ATOM      2  C7  MOL     1       0.759  -0.295   0.071  1.00  0.00     0.141 A 
ATOM      3  C8  MOL     1       0.146   0.896  -0.267  1.00  0.00     0.140 A 
ATOM      4  N5  MOL     1      -0.560   0.715  -1.430  1.00  0.00    -0.129 NA
ATOM      5  N6  MOL     1      -0.411  -0.540  -1.816  1.00  0.00    -0.066 NA
ENDROOT
BRANCH   1   6
ATOM      6  C2  MOL     1       0.759  -2.550  -1.119  1.00  0.00     0.180 C 
BRANCH   6   7
ATOM      7  C1  MOL     1       1.473  -2.692  -2.453  1.00  0.00     0.251 C 
ATOM      8  O1  MOL     1       1.420  -3.710  -3.146  1.00  0.00    -0.301 OA
ENDBRANCH   6   7
BRANCH   6   9
ATOM      9  C3  MOL     1      -0.482  -3.450  -1.014  1.00  0.00     0.119 C 
BRANCH   9  10
ATOM     10  C4  MOL     1      -0.178  -4.900  -0.862  1.00  0.00     0.142 A 
ATOM     11  C5  MOL     1      -0.465  -5.812   0.129  1.00  0.00     0.244 A 
ATOM     12  N2  MOL     1       0.467  -5.644  -1.841  1.00  0.00    -0.248 N 
ATOM     13  N1  MOL     1       0.016  -7.032  -0.290  1.00  0.00    -0.250 N 
ATOM     14  C6  MOL     1       0.564  -6.932  -1.505  1.00  0.00     0.399 A 
ATOM     15  H8  MOL     1       0.831  -5.248  -2.720  1.00  0.00     0.311 HD
ATOM     16  H6  MOL     1      -0.055  -7.908   0.228  1.00  0.00     0.311 HD
ENDBRANCH   9  10
ENDBRANCH   6   9
ENDBRANCH   1   6
BRANCH   3  17
ATOM     17  C9  MOL     1       0.195   2.261   0.360  1.00  0.00     0.239 C 
BRANCH  17  18
ATOM     18  N4  MOL     1       0.215   3.328  -0.711  1.00  0.00    -0.335 N 
ATOM     19  H11 MOL     1      -0.281   2.935  -1.526  1.00  0.00     0.347 HD
ATOM     20  H12 MOL     1      -0.333   4.146  -0.427  1.00  0.00     0.347 HD
BRANCH  18  21
ATOM     21  C10 MOL     1       1.559   3.802  -1.157  1.00  0.00     0.298 C 
BRANCH  21  22
ATOM     22  C11 MOL     1       2.434   2.712  -1.713  1.00  0.00     0.010 A 
ATOM     23  C12 MOL     1       2.166   2.157  -2.988  1.00  0.00     0.013 A 
ATOM     24  C16 MOL     1       3.500   2.203  -0.949  1.00  0.00     0.060 A 
ATOM     25  C13 MOL     1       2.934   1.101  -3.490  1.00  0.00     0.051 A 
ATOM     26  C15 MOL     1       4.239   1.165  -1.474  1.00  0.00     0.166 A 
ATOM     27  C14 MOL     1       3.962   0.625  -2.706  1.00  0.00     0.165 A 
ATOM     28  O2  MOL     1       5.284   0.547  -0.862  1.00  0.00    -0.454 OA
ATOM     29  O3  MOL     1       4.793  -0.405  -3.015  1.00  0.00    -0.454 OA
ATOM     30  C17 MOL     1       5.726  -0.341  -1.914  1.00  0.00     0.468 C 
ENDBRANCH  21  22
ENDBRANCH  18  21
ENDBRANCH  17  18
BRANCH  17  31
ATOM     31  C18 MOL     1      -0.981   2.494   1.348  1.00  0.00     0.054 C 
ATOM     32  C19 MOL     1      -2.367   2.577   0.676  1.00  0.00     0.010 C 
ATOM     33  C23 MOL     1      -0.736   3.736   2.227  1.00  0.00     0.010 C 
ATOM     34  C20 MOL     1      -3.480   2.791   1.701  1.00  0.00     0.001 C 
ATOM     35  C22 MOL     1      -1.856   3.942   3.245  1.00  0.00     0.001 C 
ATOM     36  C21 MOL     1      -3.221   4.016   2.569  1.00  0.00     0.000 C 
ENDBRANCH  17  31
ENDBRANCH   3  17
TORSDOF 9
