REMARK SMILES C[C@H](O)[C@H](C=O)n1cc([C@H]([NH2+]Cc2ccc3c(c2)OCO3)C2CCCCC2)nn1
REMARK SMILES IDX 7 1 8 2 9 3 28 4 29 5 4 6 2 7 1 8 3 9 5 11 6 12 10 13 11 14
REMARK SMILES IDX 12 17 13 18 14 19 18 20 15 21 17 22 16 23 19 24 21 25 20 26
REMARK SMILES IDX 22 27 23 28 27 29 24 30 26 31 25 32
REMARK H PARENT 3 10 11 15 11 16
REMARK Flexibility Score: inf
ROOT
ATOM      1  N1  MOL     1      -0.675  -0.223   2.867  1.00  0.00    -0.239 N 
ATOM      2  C5  MOL     1       0.176   0.713   2.343  1.00  0.00     0.142 A 
ATOM      3  C6  MOL     1       0.309   0.352   1.021  1.00  0.00     0.140 A 
ATOM      4  N3  MOL     1      -0.514  -0.713   0.766  1.00  0.00    -0.129 NA
ATOM      5  N4  MOL     1      -1.131  -1.035   1.890  1.00  0.00    -0.066 NA
ENDROOT
BRANCH   1   6
ATOM      6  C3  MOL     1      -1.150  -0.415   4.230  1.00  0.00     0.200 C 
BRANCH   6   7
ATOM      7  C2  MOL     1      -2.417   0.398   4.535  1.00  0.00     0.143 C 
ATOM      8  C1  MOL     1      -2.201   1.903   4.642  1.00  0.00     0.041 C 
BRANCH   7   9
ATOM      9  O1  MOL     1      -2.973  -0.068   5.769  1.00  0.00    -0.391 OA
ATOM     10  H5  MOL     1      -3.842   0.359   5.894  1.00  0.00     0.211 HD
ENDBRANCH   7   9
ENDBRANCH   6   7
BRANCH   6  11
ATOM     11  C4  MOL     1      -0.092  -0.198   5.287  1.00  0.00     0.254 C 
ATOM     12  O2  MOL     1       1.042   0.225   5.077  1.00  0.00    -0.301 OA
ENDBRANCH   6  11
ENDBRANCH   1   6
BRANCH   3  13
ATOM     13  C7  MOL     1       1.163   0.912  -0.074  1.00  0.00     0.239 C 
BRANCH  13  14
ATOM     14  N2  MOL     1       0.687   0.418  -1.413  1.00  0.00    -0.335 N 
ATOM     15  H10 MOL     1       0.435  -0.574  -1.285  1.00  0.00     0.347 HD
ATOM     16  H11 MOL     1       1.426   0.432  -2.122  1.00  0.00     0.347 HD
BRANCH  14  17
ATOM     17  C8  MOL     1      -0.517   1.106  -1.954  1.00  0.00     0.298 C 
BRANCH  17  18
ATOM     18  C9  MOL     1      -0.969   0.446  -3.225  1.00  0.00     0.010 A 
ATOM     19  C10 MOL     1      -0.518   0.918  -4.480  1.00  0.00     0.013 A 
ATOM     20  C14 MOL     1      -1.802  -0.685  -3.168  1.00  0.00     0.060 A 
ATOM     21  C11 MOL     1      -0.898   0.279  -5.665  1.00  0.00     0.051 A 
ATOM     22  C13 MOL     1      -2.158  -1.290  -4.354  1.00  0.00     0.166 A 
ATOM     23  C12 MOL     1      -1.719  -0.823  -5.568  1.00  0.00     0.165 A 
ATOM     24  O3  MOL     1      -2.951  -2.386  -4.476  1.00  0.00    -0.454 OA
ATOM     25  O4  MOL     1      -2.183  -1.564  -6.608  1.00  0.00    -0.454 OA
ATOM     26  C15 MOL     1      -2.982  -2.545  -5.913  1.00  0.00     0.468 C 
ENDBRANCH  17  18
ENDBRANCH  14  17
ENDBRANCH  13  14
BRANCH  13  27
ATOM     27  C16 MOL     1       2.665   0.568   0.124  1.00  0.00     0.054 C 
ATOM     28  C17 MOL     1       2.988  -0.931  -0.040  1.00  0.00     0.010 C 
ATOM     29  C21 MOL     1       3.571   1.413  -0.793  1.00  0.00     0.010 C 
ATOM     30  C18 MOL     1       4.469  -1.216   0.202  1.00  0.00     0.001 C 
ATOM     31  C20 MOL     1       5.051   1.119  -0.550  1.00  0.00     0.001 C 
ATOM     32  C19 MOL     1       5.360  -0.367  -0.699  1.00  0.00     0.000 C 
ENDBRANCH  13  27
ENDBRANCH   3  13
TORSDOF 9
