REMARK SMILES O=C[C@H](CCC(=O)[O-])n1cc([C@@H]([NH2+]Cc2ccc3c(c2)OCO3)C2CCCCC2)nn1
REMARK SMILES IDX 9 1 10 2 11 3 30 4 31 5 3 6 2 7 1 8 4 9 5 10 6 11 7 12 8 13
REMARK SMILES IDX 12 14 13 15 14 18 15 19 16 20 20 21 17 22 19 23 18 24 21 25
REMARK SMILES IDX 23 26 22 27 24 28 25 29 29 30 26 31 28 32 27 33
REMARK H PARENT 13 16 13 17
REMARK Flexibility Score: inf
ROOT
ATOM      1  N1  MOL     1      -0.306  -2.368  -1.312  1.00  0.00    -0.242 N 
ATOM      2  C6  MOL     1      -0.351  -1.096  -1.813  1.00  0.00     0.141 A 
ATOM      3  C7  MOL     1      -0.666  -0.350  -0.692  1.00  0.00     0.140 A 
ATOM      4  N3  MOL     1      -1.155  -1.186   0.274  1.00  0.00    -0.129 NA
ATOM      5  N4  MOL     1      -0.997  -2.431  -0.155  1.00  0.00    -0.066 NA
ENDROOT
BRANCH   1   6
ATOM      6  C2  MOL     1       0.479  -3.493  -1.797  1.00  0.00     0.173 C 
BRANCH   6   7
ATOM      7  C1  MOL     1       0.879  -4.416  -0.669  1.00  0.00     0.251 C 
ATOM      8  O1  MOL     1       0.899  -5.641  -0.782  1.00  0.00    -0.301 OA
ENDBRANCH   6   7
BRANCH   6   9
ATOM      9  C3  MOL     1       1.735  -3.133  -2.637  1.00  0.00     0.041 C 
BRANCH   9  10
ATOM     10  C4  MOL     1       2.948  -2.536  -1.905  1.00  0.00     0.055 C 
BRANCH  10  11
ATOM     11  C5  MOL     1       2.665  -1.243  -1.185  1.00  0.00     0.041 C 
ATOM     12  O2  MOL     1       2.339  -1.324   0.035  1.00  0.00    -0.550 OA
ATOM     13  O3  MOL     1       2.632  -0.164  -1.843  1.00  0.00    -0.550 OA
ENDBRANCH  10  11
ENDBRANCH   9  10
ENDBRANCH   6   9
ENDBRANCH   1   6
BRANCH   3  14
ATOM     14  C8  MOL     1      -0.256   1.062  -0.366  1.00  0.00     0.239 C 
BRANCH  14  15
ATOM     15  N2  MOL     1       1.197   1.000  -0.002  1.00  0.00    -0.335 N 
ATOM     16  H9  MOL     1       1.802   0.982  -0.859  1.00  0.00     0.347 HD
ATOM     17  H10 MOL     1       1.406   0.005   0.270  1.00  0.00     0.347 HD
BRANCH  15  18
ATOM     18  C9  MOL     1       1.778   1.774   1.100  1.00  0.00     0.298 C 
BRANCH  18  19
ATOM     19  C10 MOL     1       1.149   1.515   2.446  1.00  0.00     0.010 A 
ATOM     20  C11 MOL     1       1.160   0.214   3.008  1.00  0.00     0.013 A 
ATOM     21  C15 MOL     1       0.552   2.566   3.164  1.00  0.00     0.060 A 
ATOM     22  C12 MOL     1       0.574  -0.044   4.252  1.00  0.00     0.051 A 
ATOM     23  C14 MOL     1      -0.019   2.279   4.387  1.00  0.00     0.166 A 
ATOM     24  C13 MOL     1      -0.009   1.010   4.917  1.00  0.00     0.165 A 
ATOM     25  O4  MOL     1      -0.641   3.176   5.198  1.00  0.00    -0.454 OA
ATOM     26  O5  MOL     1      -0.621   0.949   6.129  1.00  0.00    -0.454 OA
ATOM     27  C16 MOL     1      -1.025   2.323   6.300  1.00  0.00     0.468 C 
ENDBRANCH  18  19
ENDBRANCH  15  18
ENDBRANCH  14  15
BRANCH  14  28
ATOM     28  C17 MOL     1      -0.495   2.037  -1.560  1.00  0.00     0.054 C 
ATOM     29  C18 MOL     1      -1.993   2.121  -1.943  1.00  0.00     0.010 C 
ATOM     30  C22 MOL     1       0.023   3.472  -1.353  1.00  0.00     0.010 C 
ATOM     31  C19 MOL     1      -2.827   2.889  -0.919  1.00  0.00     0.001 C 
ATOM     32  C21 MOL     1      -0.783   4.248  -0.315  1.00  0.00     0.001 C 
ATOM     33  C20 MOL     1      -2.265   4.285  -0.670  1.00  0.00     0.000 C 
ENDBRANCH  14  28
ENDBRANCH   3  14
TORSDOF 10
