REMARK SMILES O=C[C@H](Cc1ccc(O)cc1)n1cc([C@@H]([NH2+]Cc2ccc3c(c2)OCO3)C2CCCCC2)nn1
REMARK SMILES IDX 12 1 13 2 14 3 33 4 34 5 3 6 2 7 1 8 4 9 5 10 6 11 11 12
REMARK SMILES IDX 7 13 10 14 8 15 9 16 15 18 16 19 17 22 18 23 19 24 23 25
REMARK SMILES IDX 20 26 22 27 21 28 24 29 26 30 25 31 27 32 28 33 32 34 29 35
REMARK SMILES IDX 31 36 30 37
REMARK H PARENT 9 17 16 20 16 21
REMARK Flexibility Score: inf
ROOT
ATOM      1  N1  MOL     1       0.159   0.166  -3.676  1.00  0.00    -0.241 N 
ATOM      2  C10 MOL     1       0.144   0.676  -2.407  1.00  0.00     0.141 A 
ATOM      3  C11 MOL     1      -0.952   0.084  -1.822  1.00  0.00     0.140 A 
ATOM      4  N3  MOL     1      -1.579  -0.713  -2.748  1.00  0.00    -0.129 NA
ATOM      5  N4  MOL     1      -0.888  -0.659  -3.874  1.00  0.00    -0.066 NA
ENDROOT
BRANCH   1   6
ATOM      6  C2  MOL     1       1.150   0.386  -4.714  1.00  0.00     0.177 C 
BRANCH   6   7
ATOM      7  C1  MOL     1       0.465   0.897  -5.952  1.00  0.00     0.251 C 
ATOM      8  O1  MOL     1       0.287   2.095  -6.165  1.00  0.00    -0.301 OA
ENDBRANCH   6   7
BRANCH   6   9
ATOM      9  C3  MOL     1       1.969  -0.872  -5.032  1.00  0.00     0.070 C 
BRANCH   9  10
ATOM     10  C4  MOL     1       2.767  -1.345  -3.839  1.00  0.00    -0.045 A 
ATOM     11  C5  MOL     1       2.277  -2.378  -3.028  1.00  0.00     0.007 A 
ATOM     12  C9  MOL     1       3.976  -0.722  -3.494  1.00  0.00     0.007 A 
ATOM     13  C6  MOL     1       2.976  -2.769  -1.887  1.00  0.00     0.046 A 
ATOM     14  C8  MOL     1       4.677  -1.116  -2.352  1.00  0.00     0.046 A 
ATOM     15  C7  MOL     1       4.166  -2.134  -1.554  1.00  0.00     0.115 A 
BRANCH  15  16
ATOM     16  O2  MOL     1       4.804  -2.539  -0.421  1.00  0.00    -0.508 OA
ATOM     17  H7  MOL     1       5.695  -2.149  -0.403  1.00  0.00     0.293 HD
ENDBRANCH  15  16
ENDBRANCH   9  10
ENDBRANCH   6   9
ENDBRANCH   1   6
BRANCH   3  18
ATOM     18  C12 MOL     1      -1.544   0.227  -0.454  1.00  0.00     0.239 C 
BRANCH  18  19
ATOM     19  N2  MOL     1      -3.024  -0.105  -0.521  1.00  0.00    -0.335 N 
ATOM     20  H12 MOL     1      -3.230  -0.300  -1.514  1.00  0.00     0.347 HD
ATOM     21  H13 MOL     1      -3.214  -0.989  -0.040  1.00  0.00     0.347 HD
BRANCH  19  22
ATOM     22  C13 MOL     1      -3.962   0.942  -0.039  1.00  0.00     0.298 C 
BRANCH  22  23
ATOM     23  C14 MOL     1      -3.933   1.097   1.456  1.00  0.00     0.010 A 
ATOM     24  C15 MOL     1      -4.571   0.141   2.283  1.00  0.00     0.013 A 
ATOM     25  C19 MOL     1      -3.239   2.167   2.046  1.00  0.00     0.060 A 
ATOM     26  C16 MOL     1      -4.518   0.245   3.677  1.00  0.00     0.051 A 
ATOM     27  C18 MOL     1      -3.206   2.240   3.424  1.00  0.00     0.166 A 
ATOM     28  C17 MOL     1      -3.826   1.306   4.216  1.00  0.00     0.165 A 
ATOM     29  O3  MOL     1      -2.580   3.203   4.148  1.00  0.00    -0.454 OA
ATOM     30  O4  MOL     1      -3.672   1.565   5.540  1.00  0.00    -0.454 OA
ATOM     31  C20 MOL     1      -2.917   2.795   5.494  1.00  0.00     0.468 C 
ENDBRANCH  22  23
ENDBRANCH  19  22
ENDBRANCH  18  19
BRANCH  18  32
ATOM     32  C21 MOL     1      -0.875  -0.644   0.639  1.00  0.00     0.054 C 
ATOM     33  C22 MOL     1      -0.778  -2.142   0.289  1.00  0.00     0.010 C 
ATOM     34  C26 MOL     1       0.517  -0.104   1.020  1.00  0.00     0.010 C 
ATOM     35  C23 MOL     1      -0.160  -2.944   1.435  1.00  0.00     0.001 C 
ATOM     36  C25 MOL     1       1.128  -0.900   2.172  1.00  0.00     0.001 C 
ATOM     37  C24 MOL     1       1.199  -2.389   1.849  1.00  0.00     0.000 C 
ENDBRANCH  18  32
ENDBRANCH   3  18
TORSDOF 10
